<edges><edge id="e_0_0_E" from="n_0_0" to="n_1_0" numLanes="2" speed="13.89" /><edge id="e_0_0_W" from="n_1_0" to="n_0_0" numLanes="2" speed="13.89" /><edge id="e_0_0_N" from="n_0_0" to="n_0_1" numLanes="2" speed="13.89" /><edge id="e_0_0_S" from="n_0_1" to="n_0_0" numLanes="2" speed="13.89" /><edge id="e_1_0_E" from="n_1_0" to="n_2_0" numLanes="2" speed="13.89" /><edge id="e_1_0_W" from="n_2_0" to="n_1_0" numLanes="2" speed="13.89" /><edge id="e_1_0_N" from="n_1_0" to="n_1_1" numLanes="2" speed="13.89" /><edge id="e_1_0_S" from="n_1_1" to="n_1_0" numLanes="2" speed="13.89" /><edge id="e_2_0_E" from="n_2_0" to="n_3_0" numLanes="2" speed="13.89" /><edge id="e_2_0_W" from="n_3_0" to="n_2_0" numLanes="2" speed="13.89" /><edge id="e_2_0_N" from="n_2_0" to="n_2_1" numLanes="2" speed="13.89" /><edge id="e_2_0_S" from="n_2_1" to="n_2_0" numLanes="2" speed="13.89" /><edge id="e_3_0_N" from="n_3_0" to="n_3_1" numLanes="2" speed="13.89" /><edge id="e_3_0_S" from="n_3_1" to="n_3_0" numLanes="2" speed="13.89" /><edge id="e_0_1_E" from="n_0_1" to="n_1_1" numLanes="2" speed="13.89" /><edge id="e_0_1_W" from="n_1_1" to="n_0_1" numLanes="2" speed="13.89" /><edge id="e_0_1_N" from="n_0_1" to="n_0_2" numLanes="2" speed="13.89" /><edge id="e_0_1_S" from="n_0_2" to="n_0_1" numLanes="2" speed="13.89" /><edge id="e_1_1_E" from="n_1_1" to="n_2_1" numLanes="2" speed="13.89" /><edge id="e_1_1_W" from="n_2_1" to="n_1_1" numLanes="2" speed="13.89" /><edge id="e_1_1_N" from="n_1_1" to="n_1_2" numLanes="2" speed="13.89" /><edge id="e_1_1_S" from="n_1_2" to="n_1_1" numLanes="2" speed="13.89" /><edge id="e_2_1_E" from="n_2_1" to="n_3_1" numLanes="2" speed="13.89" /><edge id="e_2_1_W" from="n_3_1" to="n_2_1" numLanes="2" speed="13.89" /><edge id="e_2_1_N" from="n_2_1" to="n_2_2" numLanes="2" speed="13.89" /><edge id="e_2_1_S" from="n_2_2" to="n_2_1" numLanes="2" speed="13.89" /><edge id="e_3_1_N" from="n_3_1" to="n_3_2" numLanes="2" speed="13.89" /><edge id="e_3_1_S" from="n_3_2" to="n_3_1" numLanes="2" speed="13.89" /><edge id="e_0_2_E" from="n_0_2" to="n_1_2" numLanes="2" speed="13.89" /><edge id="e_0_2_W" from="n_1_2" to="n_0_2" numLanes="2" speed="13.89" /><edge id="e_0_2_N" from="n_0_2" to="n_0_3" numLanes="2" speed="13.89" /><edge id="e_0_2_S" from="n_0_3" to="n_0_2" numLanes="2" speed="13.89" /><edge id="e_1_2_E" from="n_1_2" to="n_2_2" numLanes="2" speed="13.89" /><edge id="e_1_2_W" from="n_2_2" to="n_1_2" numLanes="2" speed="13.89" /><edge id="e_1_2_N" from="n_1_2" to="n_1_3" numLanes="2" speed="13.89" /><edge id="e_1_2_S" from="n_1_3" to="n_1_2" numLanes="2" speed="13.89" /><edge id="e_2_2_E" from="n_2_2" to="n_3_2" numLanes="2" speed="13.89" /><edge id="e_2_2_W" from="n_3_2" to="n_2_2" numLanes="2" speed="13.89" /><edge id="e_2_2_N" from="n_2_2" to="n_2_3" numLanes="2" speed="13.89" /><edge id="e_2_2_S" from="n_2_3" to="n_2_2" numLanes="2" speed="13.89" /><edge id="e_3_2_N" from="n_3_2" to="n_3_3" numLanes="2" speed="13.89" /><edge id="e_3_2_S" from="n_3_3" to="n_3_2" numLanes="2" speed="13.89" /><edge id="e_0_3_E" from="n_0_3" to="n_1_3" numLanes="2" speed="13.89" /><edge id="e_0_3_W" from="n_1_3" to="n_0_3" numLanes="2" speed="13.89" /><edge id="e_1_3_E" from="n_1_3" to="n_2_3" numLanes="2" speed="13.89" /><edge id="e_1_3_W" from="n_2_3" to="n_1_3" numLanes="2" speed="13.89" /><edge id="e_2_3_E" from="n_2_3" to="n_3_3" numLanes="2" speed="13.89" /><edge id="e_2_3_W" from="n_3_3" to="n_2_3" numLanes="2" speed="13.89" /><edge id="in_0_0_W" from="ext_0_0_W" to="n_0_0" numLanes="2" speed="13.89" /><edge id="out_0_0_W" from="n_0_0" to="ext_0_0_W" numLanes="2" speed="13.89" /><edge id="in_0_0_S" from="ext_0_0_S" to="n_0_0" numLanes="2" speed="13.89" /><edge id="out_0_0_S" from="n_0_0" to="ext_0_0_S" numLanes="2" speed="13.89" /><edge id="in_1_0_S" from="ext_1_0_S" to="n_1_0" numLanes="2" speed="13.89" /><edge id="out_1_0_S" from="n_1_0" to="ext_1_0_S" numLanes="2" speed="13.89" /><edge id="in_2_0_S" from="ext_2_0_S" to="n_2_0" numLanes="2" speed="13.89" /><edge id="out_2_0_S" from="n_2_0" to="ext_2_0_S" numLanes="2" speed="13.89" /><edge id="in_3_0_E" from="ext_3_0_E" to="n_3_0" numLanes="2" speed="13.89" /><edge id="out_3_0_E" from="n_3_0" to="ext_3_0_E" numLanes="2" speed="13.89" /><edge id="in_3_0_S" from="ext_3_0_S" to="n_3_0" numLanes="2" speed="13.89" /><edge id="out_3_0_S" from="n_3_0" to="ext_3_0_S" numLanes="2" speed="13.89" /><edge id="in_0_1_W" from="ext_0_1_W" to="n_0_1" numLanes="2" speed="13.89" /><edge id="out_0_1_W" from="n_0_1" to="ext_0_1_W" numLanes="2" speed="13.89" /><edge id="in_3_1_E" from="ext_3_1_E" to="n_3_1" numLanes="2" speed="13.89" /><edge id="out_3_1_E" from="n_3_1" to="ext_3_1_E" numLanes="2" speed="13.89" /><edge id="in_0_2_W" from="ext_0_2_W" to="n_0_2" numLanes="2" speed="13.89" /><edge id="out_0_2_W" from="n_0_2" to="ext_0_2_W" numLanes="2" speed="13.89" /><edge id="in_3_2_E" from="ext_3_2_E" to="n_3_2" numLanes="2" speed="13.89" /><edge id="out_3_2_E" from="n_3_2" to="ext_3_2_E" numLanes="2" speed="13.89" /><edge id="in_0_3_W" from="ext_0_3_W" to="n_0_3" numLanes="2" speed="13.89" /><edge id="out_0_3_W" from="n_0_3" to="ext_0_3_W" numLanes="2" speed="13.89" /><edge id="in_0_3_N" from="ext_0_3_N" to="n_0_3" numLanes="2" speed="13.89" /><edge id="out_0_3_N" from="n_0_3" to="ext_0_3_N" numLanes="2" speed="13.89" /><edge id="in_1_3_N" from="ext_1_3_N" to="n_1_3" numLanes="2" speed="13.89" /><edge id="out_1_3_N" from="n_1_3" to="ext_1_3_N" numLanes="2" speed="13.89" /><edge id="in_2_3_N" from="ext_2_3_N" to="n_2_3" numLanes="2" speed="13.89" /><edge id="out_2_3_N" from="n_2_3" to="ext_2_3_N" numLanes="2" speed="13.89" /><edge id="in_3_3_E" from="ext_3_3_E" to="n_3_3" numLanes="2" speed="13.89" /><edge id="out_3_3_E" from="n_3_3" to="ext_3_3_E" numLanes="2" speed="13.89" /><edge id="in_3_3_N" from="ext_3_3_N" to="n_3_3" numLanes="2" speed="13.89" /><edge id="out_3_3_N" from="n_3_3" to="ext_3_3_N" numLanes="2" speed="13.89" /></edges>