<routes>
<vType id="car" accel="2.6" decel="4.5" length="5" maxSpeed="13.89"/>
<vehicle id="v0" type="car" depart="5.25"/>
<vehicle id="v1" type="car" depart="5.38"/>
<vehicle id="v2" type="car" depart="7.03"/>
<vehicle id="v3" type="car" depart="8.33"/>
<vehicle id="v4" type="car" depart="15.19"/>
<vehicle id="v5" type="car" depart="21.00"/>
<vehicle id="v6" type="car" depart="32.45"/>
<vehicle id="v7" type="car" depart="32.92"/>
<vehicle id="v8" type="car" depart="35.74"/>
<vehicle id="v9" type="car" depart="35.89"/>
<vehicle id="v10" type="car" depart="37.16"/>
<vehicle id="v11" type="car" depart="40.78"/>
<vehicle id="v12" type="car" depart="40.92"/>
<vehicle id="v13" type="car" depart="42.06"/>
<vehicle id="v14" type="car" depart="47.46"/>
<vehicle id="v15" type="car" depart="51.51"/>
<vehicle id="v16" type="car" depart="52.79"/>
<vehicle id="v17" type="car" depart="57.36"/>
<vehicle id="v18" type="car" depart="65.89"/>
<vehicle id="v19" type="car" depart="65.92"/>
<vehicle id="v20" type="car" depart="74.35"/>
<vehicle id="v21" type="car" depart="80.51"/>
<vehicle id="v22" type="car" depart="82.65"/>
<vehicle id="v23" type="car" depart="83.52"/>
<vehicle id="v24" type="car" depart="99.73"/>
<vehicle id="v25" type="car" depart="101.84"/>
<vehicle id="v26" type="car" depart="102.34"/>
<vehicle id="v27" type="car" depart="102.86"/>
<vehicle id="v28" type="car" depart="112.53"/>
<vehicle id="v29" type="car" depart="117.29"/>
<vehicle id="v30" type="car" depart="125.76"/>
<vehicle id="v31" type="car" depart="132.48"/>
<vehicle id="v32" type="car" depart="136.44"/>
<vehicle id="v33" type="car" depart="155.03"/>
<vehicle id="v34" type="car" depart="157.48"/>
<vehicle id="v35" type="car" depart="161.61"/>
<vehicle id="v36" type="car" depart="170.71"/>
<vehicle id="v37" type="car" depart="175.66"/>
<vehicle id="v38" type="car" depart="185.84"/>
<vehicle id="v39" type="car" depart="190.26"/>
<vehicle id="v40" type="car" depart="196.54"/>
<vehicle id="v41" type="car" depart="196.78"/>
<vehicle id="v42" type="car" depart="198.11"/>
<vehicle id="v43" type="car" depart="199.86"/>
<vehicle id="v44" type="car" depart="200.29"/>
<vehicle id="v45" type="car" depart="201.65"/>
<vehicle id="v46" type="car" depart="202.20"/>
<vehicle id="v47" type="car" depart="203.88"/>
<vehicle id="v48" type="car" depart="209.07"/>
<vehicle id="v49" type="car" depart="211.40"/>
<vehicle id="v50" type="car" depart="213.78"/>
<vehicle id="v51" type="car" depart="214.99"/>
<vehicle id="v52" type="car" depart="216.59"/>
<vehicle id="v53" type="car" depart="230.78"/>
<vehicle id="v54" type="car" depart="236.15"/>
<vehicle id="v55" type="car" depart="240.98"/>
<vehicle id="v56" type="car" depart="241.94"/>
<vehicle id="v57" type="car" depart="248.66"/>
<vehicle id="v58" type="car" depart="249.58"/>
<vehicle id="v59" type="car" depart="252.03"/>
<vehicle id="v60" type="car" depart="275.48"/>
<vehicle id="v61" type="car" depart="280.73"/>
<vehicle id="v62" type="car" depart="284.92"/>
<vehicle id="v63" type="car" depart="290.85"/>
<vehicle id="v64" type="car" depart="300.37"/>
<vehicle id="v65" type="car" depart="308.06"/>
<vehicle id="v66" type="car" depart="309.40"/>
<vehicle id="v67" type="car" depart="309.57"/>
<vehicle id="v68" type="car" depart="311.52"/>
<vehicle id="v69" type="car" depart="313.12"/>
<vehicle id="v70" type="car" depart="314.34"/>
<vehicle id="v71" type="car" depart="329.07"/>
<vehicle id="v72" type="car" depart="339.82"/>
<vehicle id="v73" type="car" depart="341.76"/>
<vehicle id="v74" type="car" depart="347.24"/>
<vehicle id="v75" type="car" depart="349.83"/>
<vehicle id="v76" type="car" depart="362.48"/>
<vehicle id="v77" type="car" depart="365.64"/>
<vehicle id="v78" type="car" depart="367.22"/>
<vehicle id="v79" type="car" depart="368.68"/>
<vehicle id="v80" type="car" depart="372.91"/>
<vehicle id="v81" type="car" depart="374.48"/>
<vehicle id="v82" type="car" depart="379.00"/>
<vehicle id="v83" type="car" depart="390.73"/>
<vehicle id="v84" type="car" depart="393.35"/>
<vehicle id="v85" type="car" depart="394.63"/>
<vehicle id="v86" type="car" depart="425.52"/>
<vehicle id="v87" type="car" depart="429.18"/>
<vehicle id="v88" type="car" depart="429.67"/>
<vehicle id="v89" type="car" depart="429.92"/>
<vehicle id="v90" type="car" depart="430.52"/>
<vehicle id="v91" type="car" depart="435.59"/>
<vehicle id="v92" type="car" depart="443.67"/>
<vehicle id="v93" type="car" depart="446.49"/>
<vehicle id="v94" type="car" depart="446.83"/>
<vehicle id="v95" type="car" depart="449.30"/>
<vehicle id="v96" type="car" depart="477.86"/>
<vehicle id="v97" type="car" depart="481.73"/>
<vehicle id="v98" type="car" depart="499.95"/>
<vehicle id="v99" type="car" depart="510.09"/>
<vehicle id="v100" type="car" depart="510.15"/>
<vehicle id="v101" type="car" depart="516.71"/>
<vehicle id="v102" type="car" depart="522.60"/>
<vehicle id="v103" type="car" depart="526.56"/>
<vehicle id="v104" type="car" depart="528.16"/>
<vehicle id="v105" type="car" depart="533.42"/>
<vehicle id="v106" type="car" depart="534.03"/>
<vehicle id="v107" type="car" depart="536.97"/>
<vehicle id="v108" type="car" depart="540.08"/>
<vehicle id="v109" type="car" depart="555.89"/>
<vehicle id="v110" type="car" depart="566.62"/>
<vehicle id="v111" type="car" depart="568.19"/>
<vehicle id="v112" type="car" depart="571.76"/>
<vehicle id="v113" type="car" depart="572.77"/>
<vehicle id="v114" type="car" depart="585.31"/>
<vehicle id="v115" type="car" depart="595.82"/>
<vehicle id="v116" type="car" depart="597.65"/>
<vehicle id="v117" type="car" depart="602.89"/>
<vehicle id="v118" type="car" depart="607.72"/>
<vehicle id="v119" type="car" depart="608.57"/>
<vehicle id="v120" type="car" depart="615.96"/>
<vehicle id="v121" type="car" depart="619.95"/>
<vehicle id="v122" type="car" depart="627.70"/>
<vehicle id="v123" type="car" depart="631.59"/>
<vehicle id="v124" type="car" depart="631.59"/>
<vehicle id="v125" type="car" depart="633.61"/>
<vehicle id="v126" type="car" depart="633.71"/>
<vehicle id="v127" type="car" depart="647.32"/>
<vehicle id="v128" type="car" depart="658.17"/>
<vehicle id="v129" type="car" depart="667.33"/>
<vehicle id="v130" type="car" depart="669.22"/>
<vehicle id="v131" type="car" depart="669.53"/>
<vehicle id="v132" type="car" depart="680.35"/>
<vehicle id="v133" type="car" depart="695.45"/>
<vehicle id="v134" type="car" depart="695.91"/>
<vehicle id="v135" type="car" depart="699.33"/>
<vehicle id="v136" type="car" depart="699.70"/>
<vehicle id="v137" type="car" depart="707.06"/>
<vehicle id="v138" type="car" depart="714.52"/>
<vehicle id="v139" type="car" depart="715.23"/>
<vehicle id="v140" type="car" depart="718.54"/>
<vehicle id="v141" type="car" depart="722.65"/>
<vehicle id="v142" type="car" depart="724.23"/>
<vehicle id="v143" type="car" depart="734.82"/>
<vehicle id="v144" type="car" depart="737.65"/>
<vehicle id="v145" type="car" depart="738.88"/>
<vehicle id="v146" type="car" depart="742.86"/>
<vehicle id="v147" type="car" depart="749.59"/>
<vehicle id="v148" type="car" depart="750.75"/>
<vehicle id="v149" type="car" depart="752.67"/>
<vehicle id="v150" type="car" depart="780.07"/>
<vehicle id="v151" type="car" depart="785.47"/>
<vehicle id="v152" type="car" depart="788.44"/>
<vehicle id="v153" type="car" depart="792.19"/>
<vehicle id="v154" type="car" depart="792.85"/>
<vehicle id="v155" type="car" depart="794.16"/>
<vehicle id="v156" type="car" depart="796.28"/>
<vehicle id="v157" type="car" depart="800.84"/>
<vehicle id="v158" type="car" depart="802.19"/>
<vehicle id="v159" type="car" depart="803.47"/>
<vehicle id="v160" type="car" depart="803.85"/>
<vehicle id="v161" type="car" depart="808.98"/>
<vehicle id="v162" type="car" depart="810.31"/>
<vehicle id="v163" type="car" depart="822.44"/>
<vehicle id="v164" type="car" depart="832.54"/>
<vehicle id="v165" type="car" depart="832.92"/>
<vehicle id="v166" type="car" depart="834.31"/>
<vehicle id="v167" type="car" depart="840.00"/>
<vehicle id="v168" type="car" depart="841.24"/>
<vehicle id="v169" type="car" depart="841.97"/>
<vehicle id="v170" type="car" depart="856.07"/>
<vehicle id="v171" type="car" depart="860.42"/>
<vehicle id="v172" type="car" depart="863.71"/>
<vehicle id="v173" type="car" depart="871.61"/>
<vehicle id="v174" type="car" depart="880.08"/>
<vehicle id="v175" type="car" depart="881.17"/>
<vehicle id="v176" type="car" depart="881.69"/>
<vehicle id="v177" type="car" depart="884.59"/>
<vehicle id="v178" type="car" depart="887.43"/>
<vehicle id="v179" type="car" depart="890.66"/>
<vehicle id="v180" type="car" depart="897.38"/>
<vehicle id="v181" type="car" depart="903.13"/>
<vehicle id="v182" type="car" depart="924.45"/>
<vehicle id="v183" type="car" depart="924.99"/>
<vehicle id="v184" type="car" depart="927.64"/>
<vehicle id="v185" type="car" depart="929.77"/>
<vehicle id="v186" type="car" depart="939.94"/>
<vehicle id="v187" type="car" depart="941.41"/>
<vehicle id="v188" type="car" depart="942.50"/>
<vehicle id="v189" type="car" depart="945.56"/>
<vehicle id="v190" type="car" depart="948.38"/>
<vehicle id="v191" type="car" depart="950.05"/>
<vehicle id="v192" type="car" depart="951.53"/>
<vehicle id="v193" type="car" depart="964.74"/>
<vehicle id="v194" type="car" depart="967.75"/>
<vehicle id="v195" type="car" depart="977.91"/>
<vehicle id="v196" type="car" depart="982.02"/>
<vehicle id="v197" type="car" depart="982.29"/>
<vehicle id="v198" type="car" depart="1019.52"/>
<vehicle id="v199" type="car" depart="1028.82"/>
<vehicle id="v200" type="car" depart="1046.68"/>
<vehicle id="v201" type="car" depart="1060.10"/>
<vehicle id="v202" type="car" depart="1069.81"/>
<vehicle id="v203" type="car" depart="1070.75"/>
<vehicle id="v204" type="car" depart="1074.16"/>
<vehicle id="v205" type="car" depart="1075.40"/>
<vehicle id="v206" type="car" depart="1078.04"/>
<vehicle id="v207" type="car" depart="1078.35"/>
<vehicle id="v208" type="car" depart="1080.80"/>
<vehicle id="v209" type="car" depart="1102.50"/>
<vehicle id="v210" type="car" depart="1104.09"/>
<vehicle id="v211" type="car" depart="1111.97"/>
<vehicle id="v212" type="car" depart="1115.09"/>
<vehicle id="v213" type="car" depart="1117.92"/>
<vehicle id="v214" type="car" depart="1134.14"/>
<vehicle id="v215" type="car" depart="1161.84"/>
<vehicle id="v216" type="car" depart="1166.02"/>
<vehicle id="v217" type="car" depart="1172.53"/>
<vehicle id="v218" type="car" depart="1173.40"/>
<vehicle id="v219" type="car" depart="1175.21"/>
<vehicle id="v220" type="car" depart="1193.03"/>
<vehicle id="v221" type="car" depart="1197.48"/>
<vehicle id="v222" type="car" depart="1201.50"/>
<vehicle id="v223" type="car" depart="1208.58"/>
<vehicle id="v224" type="car" depart="1208.89"/>
<vehicle id="v225" type="car" depart="1213.40"/>
<vehicle id="v226" type="car" depart="1216.99"/>
<vehicle id="v227" type="car" depart="1226.85"/>
<vehicle id="v228" type="car" depart="1227.73"/>
<vehicle id="v229" type="car" depart="1244.38"/>
<vehicle id="v230" type="car" depart="1244.81"/>
<vehicle id="v231" type="car" depart="1245.87"/>
<vehicle id="v232" type="car" depart="1250.52"/>
<vehicle id="v233" type="car" depart="1256.30"/>
<vehicle id="v234" type="car" depart="1257.68"/>
<vehicle id="v235" type="car" depart="1258.34"/>
<vehicle id="v236" type="car" depart="1269.70"/>
<vehicle id="v237" type="car" depart="1271.16"/>
<vehicle id="v238" type="car" depart="1275.80"/>
<vehicle id="v239" type="car" depart="1280.77"/>
<vehicle id="v240" type="car" depart="1283.56"/>
<vehicle id="v241" type="car" depart="1288.07"/>
<vehicle id="v242" type="car" depart="1291.87"/>
<vehicle id="v243" type="car" depart="1305.91"/>
<vehicle id="v244" type="car" depart="1307.08"/>
<vehicle id="v245" type="car" depart="1313.56"/>
<vehicle id="v246" type="car" depart="1314.96"/>
<vehicle id="v247" type="car" depart="1317.55"/>
<vehicle id="v248" type="car" depart="1323.28"/>
<vehicle id="v249" type="car" depart="1325.11"/>
<vehicle id="v250" type="car" depart="1327.07"/>
<vehicle id="v251" type="car" depart="1334.24"/>
<vehicle id="v252" type="car" depart="1334.62"/>
<vehicle id="v253" type="car" depart="1337.78"/>
<vehicle id="v254" type="car" depart="1371.06"/>
<vehicle id="v255" type="car" depart="1399.58"/>
<vehicle id="v256" type="car" depart="1399.98"/>
<vehicle id="v257" type="car" depart="1401.21"/>
<vehicle id="v258" type="car" depart="1402.79"/>
<vehicle id="v259" type="car" depart="1416.71"/>
<vehicle id="v260" type="car" depart="1427.66"/>
<vehicle id="v261" type="car" depart="1438.53"/>
<vehicle id="v262" type="car" depart="1440.90"/>
<vehicle id="v263" type="car" depart="1441.78"/>
<vehicle id="v264" type="car" depart="1451.01"/>
<vehicle id="v265" type="car" depart="1457.26"/>
<vehicle id="v266" type="car" depart="1462.13"/>
<vehicle id="v267" type="car" depart="1484.56"/>
<vehicle id="v268" type="car" depart="1490.01"/>
<vehicle id="v269" type="car" depart="1490.05"/>
<vehicle id="v270" type="car" depart="1498.79"/>
<vehicle id="v271" type="car" depart="1500.62"/>
<vehicle id="v272" type="car" depart="1506.22"/>
<vehicle id="v273" type="car" depart="1520.60"/>
<vehicle id="v274" type="car" depart="1521.34"/>
<vehicle id="v275" type="car" depart="1521.97"/>
<vehicle id="v276" type="car" depart="1522.55"/>
<vehicle id="v277" type="car" depart="1526.70"/>
<vehicle id="v278" type="car" depart="1528.33"/>
<vehicle id="v279" type="car" depart="1533.11"/>
<vehicle id="v280" type="car" depart="1539.61"/>
<vehicle id="v281" type="car" depart="1540.78"/>
<vehicle id="v282" type="car" depart="1545.95"/>
<vehicle id="v283" type="car" depart="1547.53"/>
<vehicle id="v284" type="car" depart="1550.98"/>
<vehicle id="v285" type="car" depart="1563.10"/>
<vehicle id="v286" type="car" depart="1572.73"/>
<vehicle id="v287" type="car" depart="1573.22"/>
<vehicle id="v288" type="car" depart="1576.06"/>
<vehicle id="v289" type="car" depart="1577.72"/>
<vehicle id="v290" type="car" depart="1577.74"/>
<vehicle id="v291" type="car" depart="1585.33"/>
<vehicle id="v292" type="car" depart="1590.54"/>
<vehicle id="v293" type="car" depart="1592.10"/>
<vehicle id="v294" type="car" depart="1599.05"/>
<vehicle id="v295" type="car" depart="1603.18"/>
<vehicle id="v296" type="car" depart="1606.05"/>
<vehicle id="v297" type="car" depart="1606.10"/>
<vehicle id="v298" type="car" depart="1606.50"/>
<vehicle id="v299" type="car" depart="1617.54"/>
<vehicle id="v300" type="car" depart="1629.59"/>
<vehicle id="v301" type="car" depart="1633.64"/>
<vehicle id="v302" type="car" depart="1642.90"/>
<vehicle id="v303" type="car" depart="1647.39"/>
<vehicle id="v304" type="car" depart="1648.22"/>
<vehicle id="v305" type="car" depart="1648.92"/>
<vehicle id="v306" type="car" depart="1650.81"/>
<vehicle id="v307" type="car" depart="1662.60"/>
<vehicle id="v308" type="car" depart="1670.78"/>
<vehicle id="v309" type="car" depart="1680.92"/>
<vehicle id="v310" type="car" depart="1692.70"/>
<vehicle id="v311" type="car" depart="1693.92"/>
<vehicle id="v312" type="car" depart="1695.39"/>
<vehicle id="v313" type="car" depart="1695.95"/>
<vehicle id="v314" type="car" depart="1703.74"/>
<vehicle id="v315" type="car" depart="1714.83"/>
<vehicle id="v316" type="car" depart="1717.51"/>
<vehicle id="v317" type="car" depart="1722.49"/>
<vehicle id="v318" type="car" depart="1723.36"/>
<vehicle id="v319" type="car" depart="1737.02"/>
<vehicle id="v320" type="car" depart="1747.31"/>
<vehicle id="v321" type="car" depart="1766.53"/>
<vehicle id="v322" type="car" depart="1775.09"/>
<vehicle id="v323" type="car" depart="1786.06"/>
<vehicle id="v324" type="car" depart="1786.19"/>
<vehicle id="v325" type="car" depart="1793.05"/>
<vehicle id="v326" type="car" depart="1795.13"/>
<vehicle id="v327" type="car" depart="1808.86"/>
<vehicle id="v328" type="car" depart="1817.20"/>
<vehicle id="v329" type="car" depart="1827.46"/>
<vehicle id="v330" type="car" depart="1836.02"/>
<vehicle id="v331" type="car" depart="1837.62"/>
<vehicle id="v332" type="car" depart="1845.58"/>
<vehicle id="v333" type="car" depart="1846.17"/>
<vehicle id="v334" type="car" depart="1856.75"/>
<vehicle id="v335" type="car" depart="1866.81"/>
<vehicle id="v336" type="car" depart="1868.10"/>
<vehicle id="v337" type="car" depart="1876.82"/>
<vehicle id="v338" type="car" depart="1879.99"/>
<vehicle id="v339" type="car" depart="1881.87"/>
<vehicle id="v340" type="car" depart="1890.03"/>
<vehicle id="v341" type="car" depart="1891.35"/>
<vehicle id="v342" type="car" depart="1891.48"/>
<vehicle id="v343" type="car" depart="1892.58"/>
<vehicle id="v344" type="car" depart="1894.63"/>
<vehicle id="v345" type="car" depart="1904.90"/>
<vehicle id="v346" type="car" depart="1922.43"/>
<vehicle id="v347" type="car" depart="1924.11"/>
<vehicle id="v348" type="car" depart="1929.39"/>
<vehicle id="v349" type="car" depart="1932.01"/>
<vehicle id="v350" type="car" depart="1952.43"/>
<vehicle id="v351" type="car" depart="1956.39"/>
<vehicle id="v352" type="car" depart="1970.79"/>
<vehicle id="v353" type="car" depart="1971.42"/>
<vehicle id="v354" type="car" depart="1989.52"/>
<vehicle id="v355" type="car" depart="1990.53"/>
<vehicle id="v356" type="car" depart="2007.42"/>
<vehicle id="v357" type="car" depart="2009.01"/>
<vehicle id="v358" type="car" depart="2009.60"/>
<vehicle id="v359" type="car" depart="2012.53"/>
<vehicle id="v360" type="car" depart="2019.24"/>
<vehicle id="v361" type="car" depart="2021.18"/>
<vehicle id="v362" type="car" depart="2025.97"/>
<vehicle id="v363" type="car" depart="2029.65"/>
<vehicle id="v364" type="car" depart="2032.15"/>
<vehicle id="v365" type="car" depart="2036.57"/>
<vehicle id="v366" type="car" depart="2038.09"/>
<vehicle id="v367" type="car" depart="2044.43"/>
<vehicle id="v368" type="car" depart="2044.44"/>
<vehicle id="v369" type="car" depart="2057.80"/>
<vehicle id="v370" type="car" depart="2061.78"/>
<vehicle id="v371" type="car" depart="2068.31"/>
<vehicle id="v372" type="car" depart="2075.28"/>
<vehicle id="v373" type="car" depart="2080.99"/>
<vehicle id="v374" type="car" depart="2083.32"/>
<vehicle id="v375" type="car" depart="2083.69"/>
<vehicle id="v376" type="car" depart="2089.31"/>
<vehicle id="v377" type="car" depart="2091.37"/>
<vehicle id="v378" type="car" depart="2093.30"/>
<vehicle id="v379" type="car" depart="2102.99"/>
<vehicle id="v380" type="car" depart="2109.54"/>
<vehicle id="v381" type="car" depart="2111.37"/>
<vehicle id="v382" type="car" depart="2113.28"/>
<vehicle id="v383" type="car" depart="2115.97"/>
<vehicle id="v384" type="car" depart="2118.62"/>
<vehicle id="v385" type="car" depart="2120.42"/>
<vehicle id="v386" type="car" depart="2121.13"/>
<vehicle id="v387" type="car" depart="2123.93"/>
<vehicle id="v388" type="car" depart="2138.43"/>
<vehicle id="v389" type="car" depart="2144.25"/>
<vehicle id="v390" type="car" depart="2156.24"/>
<vehicle id="v391" type="car" depart="2161.15"/>
<vehicle id="v392" type="car" depart="2162.99"/>
<vehicle id="v393" type="car" depart="2167.08"/>
<vehicle id="v394" type="car" depart="2167.08"/>
<vehicle id="v395" type="car" depart="2168.82"/>
<vehicle id="v396" type="car" depart="2171.71"/>
<vehicle id="v397" type="car" depart="2176.17"/>
<vehicle id="v398" type="car" depart="2181.64"/>
<vehicle id="v399" type="car" depart="2184.85"/>
<vehicle id="v400" type="car" depart="2187.86"/>
<vehicle id="v401" type="car" depart="2189.09"/>
<vehicle id="v402" type="car" depart="2192.39"/>
<vehicle id="v403" type="car" depart="2204.29"/>
<vehicle id="v404" type="car" depart="2212.47"/>
<vehicle id="v405" type="car" depart="2213.42"/>
<vehicle id="v406" type="car" depart="2213.88"/>
<vehicle id="v407" type="car" depart="2217.61"/>
<vehicle id="v408" type="car" depart="2222.76"/>
<vehicle id="v409" type="car" depart="2224.86"/>
<vehicle id="v410" type="car" depart="2233.63"/>
<vehicle id="v411" type="car" depart="2240.79"/>
<vehicle id="v412" type="car" depart="2246.53"/>
<vehicle id="v413" type="car" depart="2247.84"/>
<vehicle id="v414" type="car" depart="2248.98"/>
<vehicle id="v415" type="car" depart="2249.11"/>
<vehicle id="v416" type="car" depart="2250.55"/>
<vehicle id="v417" type="car" depart="2253.87"/>
<vehicle id="v418" type="car" depart="2263.62"/>
<vehicle id="v419" type="car" depart="2264.01"/>
<vehicle id="v420" type="car" depart="2266.76"/>
<vehicle id="v421" type="car" depart="2271.87"/>
<vehicle id="v422" type="car" depart="2272.98"/>
<vehicle id="v423" type="car" depart="2279.11"/>
<vehicle id="v424" type="car" depart="2282.62"/>
<vehicle id="v425" type="car" depart="2284.06"/>
<vehicle id="v426" type="car" depart="2289.54"/>
<vehicle id="v427" type="car" depart="2289.57"/>
<vehicle id="v428" type="car" depart="2296.72"/>
<vehicle id="v429" type="car" depart="2304.28"/>
<vehicle id="v430" type="car" depart="2304.86"/>
<vehicle id="v431" type="car" depart="2307.71"/>
<vehicle id="v432" type="car" depart="2308.70"/>
<vehicle id="v433" type="car" depart="2325.00"/>
<vehicle id="v434" type="car" depart="2328.76"/>
<vehicle id="v435" type="car" depart="2329.02"/>
<vehicle id="v436" type="car" depart="2330.49"/>
<vehicle id="v437" type="car" depart="2340.19"/>
<vehicle id="v438" type="car" depart="2343.33"/>
<vehicle id="v439" type="car" depart="2351.64"/>
<vehicle id="v440" type="car" depart="2357.31"/>
<vehicle id="v441" type="car" depart="2380.01"/>
<vehicle id="v442" type="car" depart="2384.66"/>
<vehicle id="v443" type="car" depart="2400.07"/>
<vehicle id="v444" type="car" depart="2411.49"/>
<vehicle id="v445" type="car" depart="2416.37"/>
<vehicle id="v446" type="car" depart="2422.90"/>
<vehicle id="v447" type="car" depart="2426.52"/>
<vehicle id="v448" type="car" depart="2435.65"/>
<vehicle id="v449" type="car" depart="2439.73"/>
<vehicle id="v450" type="car" depart="2451.43"/>
<vehicle id="v451" type="car" depart="2458.43"/>
<vehicle id="v452" type="car" depart="2461.74"/>
<vehicle id="v453" type="car" depart="2463.28"/>
<vehicle id="v454" type="car" depart="2464.74"/>
<vehicle id="v455" type="car" depart="2469.96"/>
<vehicle id="v456" type="car" depart="2477.43"/>
<vehicle id="v457" type="car" depart="2481.22"/>
<vehicle id="v458" type="car" depart="2486.29"/>
<vehicle id="v459" type="car" depart="2487.94"/>
<vehicle id="v460" type="car" depart="2488.35"/>
<vehicle id="v461" type="car" depart="2490.08"/>
<vehicle id="v462" type="car" depart="2491.71"/>
<vehicle id="v463" type="car" depart="2493.70"/>
<vehicle id="v464" type="car" depart="2497.69"/>
<vehicle id="v465" type="car" depart="2498.46"/>
<vehicle id="v466" type="car" depart="2499.81"/>
<vehicle id="v467" type="car" depart="2505.90"/>
<vehicle id="v468" type="car" depart="2512.20"/>
<vehicle id="v469" type="car" depart="2512.54"/>
<vehicle id="v470" type="car" depart="2515.24"/>
<vehicle id="v471" type="car" depart="2519.26"/>
<vehicle id="v472" type="car" depart="2522.02"/>
<vehicle id="v473" type="car" depart="2523.21"/>
<vehicle id="v474" type="car" depart="2526.02"/>
<vehicle id="v475" type="car" depart="2538.11"/>
<vehicle id="v476" type="car" depart="2542.63"/>
<vehicle id="v477" type="car" depart="2548.74"/>
<vehicle id="v478" type="car" depart="2558.73"/>
<vehicle id="v479" type="car" depart="2566.19"/>
<vehicle id="v480" type="car" depart="2568.66"/>
<vehicle id="v481" type="car" depart="2568.69"/>
<vehicle id="v482" type="car" depart="2570.92"/>
<vehicle id="v483" type="car" depart="2578.12"/>
<vehicle id="v484" type="car" depart="2587.99"/>
<vehicle id="v485" type="car" depart="2603.77"/>
<vehicle id="v486" type="car" depart="2606.56"/>
<vehicle id="v487" type="car" depart="2613.64"/>
<vehicle id="v488" type="car" depart="2617.70"/>
<vehicle id="v489" type="car" depart="2622.45"/>
<vehicle id="v490" type="car" depart="2623.74"/>
<vehicle id="v491" type="car" depart="2625.01"/>
<vehicle id="v492" type="car" depart="2627.95"/>
<vehicle id="v493" type="car" depart="2628.11"/>
<vehicle id="v494" type="car" depart="2630.21"/>
<vehicle id="v495" type="car" depart="2636.06"/>
<vehicle id="v496" type="car" depart="2638.72"/>
<vehicle id="v497" type="car" depart="2639.65"/>
<vehicle id="v498" type="car" depart="2642.89"/>
<vehicle id="v499" type="car" depart="2643.59"/>
<vehicle id="v500" type="car" depart="2648.60"/>
<vehicle id="v501" type="car" depart="2648.74"/>
<vehicle id="v502" type="car" depart="2651.32"/>
<vehicle id="v503" type="car" depart="2655.59"/>
<vehicle id="v504" type="car" depart="2655.73"/>
<vehicle id="v505" type="car" depart="2661.02"/>
<vehicle id="v506" type="car" depart="2661.77"/>
<vehicle id="v507" type="car" depart="2664.96"/>
<vehicle id="v508" type="car" depart="2665.22"/>
<vehicle id="v509" type="car" depart="2667.68"/>
<vehicle id="v510" type="car" depart="2668.90"/>
<vehicle id="v511" type="car" depart="2670.93"/>
<vehicle id="v512" type="car" depart="2678.30"/>
<vehicle id="v513" type="car" depart="2680.75"/>
<vehicle id="v514" type="car" depart="2687.92"/>
<vehicle id="v515" type="car" depart="2697.09"/>
<vehicle id="v516" type="car" depart="2698.59"/>
<vehicle id="v517" type="car" depart="2699.03"/>
<vehicle id="v518" type="car" depart="2699.13"/>
<vehicle id="v519" type="car" depart="2703.12"/>
<vehicle id="v520" type="car" depart="2750.90"/>
<vehicle id="v521" type="car" depart="2753.12"/>
<vehicle id="v522" type="car" depart="2758.52"/>
<vehicle id="v523" type="car" depart="2766.34"/>
<vehicle id="v524" type="car" depart="2771.76"/>
<vehicle id="v525" type="car" depart="2778.98"/>
<vehicle id="v526" type="car" depart="2794.34"/>
<vehicle id="v527" type="car" depart="2795.49"/>
<vehicle id="v528" type="car" depart="2795.59"/>
<vehicle id="v529" type="car" depart="2796.44"/>
<vehicle id="v530" type="car" depart="2797.14"/>
<vehicle id="v531" type="car" depart="2802.83"/>
<vehicle id="v532" type="car" depart="2807.10"/>
<vehicle id="v533" type="car" depart="2808.36"/>
<vehicle id="v534" type="car" depart="2814.55"/>
<vehicle id="v535" type="car" depart="2822.04"/>
<vehicle id="v536" type="car" depart="2822.98"/>
<vehicle id="v537" type="car" depart="2827.79"/>
<vehicle id="v538" type="car" depart="2834.87"/>
<vehicle id="v539" type="car" depart="2835.50"/>
<vehicle id="v540" type="car" depart="2844.30"/>
<vehicle id="v541" type="car" depart="2861.50"/>
<vehicle id="v542" type="car" depart="2862.09"/>
<vehicle id="v543" type="car" depart="2862.22"/>
<vehicle id="v544" type="car" depart="2864.14"/>
<vehicle id="v545" type="car" depart="2869.96"/>
<vehicle id="v546" type="car" depart="2886.29"/>
<vehicle id="v547" type="car" depart="2888.88"/>
<vehicle id="v548" type="car" depart="2895.34"/>
<vehicle id="v549" type="car" depart="2895.75"/>
<vehicle id="v550" type="car" depart="2901.78"/>
<vehicle id="v551" type="car" depart="2906.86"/>
<vehicle id="v552" type="car" depart="2907.41"/>
<vehicle id="v553" type="car" depart="2915.02"/>
<vehicle id="v554" type="car" depart="2924.79"/>
<vehicle id="v555" type="car" depart="2929.51"/>
<vehicle id="v556" type="car" depart="2930.17"/>
<vehicle id="v557" type="car" depart="2951.39"/>
<vehicle id="v558" type="car" depart="2959.24"/>
<vehicle id="v559" type="car" depart="2961.43"/>
<vehicle id="v560" type="car" depart="2964.31"/>
<vehicle id="v561" type="car" depart="2966.69"/>
<vehicle id="v562" type="car" depart="2970.31"/>
<vehicle id="v563" type="car" depart="2972.46"/>
<vehicle id="v564" type="car" depart="2982.20"/>
<vehicle id="v565" type="car" depart="2991.09"/>
<vehicle id="v566" type="car" depart="2991.66"/>
<vehicle id="v567" type="car" depart="3008.32"/>
<vehicle id="v568" type="car" depart="3013.51"/>
<vehicle id="v569" type="car" depart="3022.58"/>
<vehicle id="v570" type="car" depart="3028.90"/>
<vehicle id="v571" type="car" depart="3031.84"/>
<vehicle id="v572" type="car" depart="3038.65"/>
<vehicle id="v573" type="car" depart="3055.96"/>
<vehicle id="v574" type="car" depart="3057.58"/>
<vehicle id="v575" type="car" depart="3066.07"/>
<vehicle id="v576" type="car" depart="3070.04"/>
<vehicle id="v577" type="car" depart="3073.44"/>
<vehicle id="v578" type="car" depart="3076.38"/>
<vehicle id="v579" type="car" depart="3083.14"/>
<vehicle id="v580" type="car" depart="3084.74"/>
<vehicle id="v581" type="car" depart="3094.56"/>
<vehicle id="v582" type="car" depart="3103.70"/>
<vehicle id="v583" type="car" depart="3104.16"/>
<vehicle id="v584" type="car" depart="3115.14"/>
<vehicle id="v585" type="car" depart="3116.57"/>
<vehicle id="v586" type="car" depart="3119.79"/>
<vehicle id="v587" type="car" depart="3124.63"/>
<vehicle id="v588" type="car" depart="3127.08"/>
<vehicle id="v589" type="car" depart="3127.23"/>
<vehicle id="v590" type="car" depart="3137.02"/>
<vehicle id="v591" type="car" depart="3138.06"/>
<vehicle id="v592" type="car" depart="3139.28"/>
<vehicle id="v593" type="car" depart="3147.50"/>
<vehicle id="v594" type="car" depart="3149.64"/>
<vehicle id="v595" type="car" depart="3160.56"/>
<vehicle id="v596" type="car" depart="3166.77"/>
<vehicle id="v597" type="car" depart="3168.44"/>
<vehicle id="v598" type="car" depart="3168.49"/>
<vehicle id="v599" type="car" depart="3183.70"/>
<vehicle id="v600" type="car" depart="3184.16"/>
<vehicle id="v601" type="car" depart="3190.71"/>
<vehicle id="v602" type="car" depart="3194.16"/>
<vehicle id="v603" type="car" depart="3201.46"/>
<vehicle id="v604" type="car" depart="3207.49"/>
<vehicle id="v605" type="car" depart="3212.83"/>
<vehicle id="v606" type="car" depart="3216.30"/>
<vehicle id="v607" type="car" depart="3224.40"/>
<vehicle id="v608" type="car" depart="3224.90"/>
<vehicle id="v609" type="car" depart="3226.19"/>
<vehicle id="v610" type="car" depart="3232.24"/>
<vehicle id="v611" type="car" depart="3234.12"/>
<vehicle id="v612" type="car" depart="3238.60"/>
<vehicle id="v613" type="car" depart="3241.90"/>
<vehicle id="v614" type="car" depart="3245.79"/>
<vehicle id="v615" type="car" depart="3248.64"/>
<vehicle id="v616" type="car" depart="3255.69"/>