<?xml version='1.0' encoding='utf-8'?>
<net version="1.20" xmlns:xsi="http://www.w3.org/2001/XMLSchema-instance" xsi:noNamespaceSchemaLocation="http://sumo.dlr.de/xsd/net_file.xsd">
  <location netOffset="0,0" convBoundary="-100,-100,300,300" origBoundary="-1e10,-1e10,1e10,1e10" projParameter="!" />
  <junction id="n_0_0" type="traffic_light" x="0" y="0" />
  <junction id="n_1_0" type="traffic_light" x="200" y="0" />
  <junction id="n_0_1" type="traffic_light" x="0" y="200" />
  <junction id="n_1_1" type="traffic_light" x="200" y="200" />
  <junction id="ext_0_0_W" type="dead_end" x="-100" y="0" />
  <junction id="ext_0_0_S" type="dead_end" x="0" y="-100" />
  <junction id="ext_1_0_E" type="dead_end" x="300" y="0" />
  <junction id="ext_1_0_S" type="dead_end" x="200" y="-100" />
  <junction id="ext_0_1_W" type="dead_end" x="-100" y="200" />
  <junction id="ext_0_1_N" type="dead_end" x="0" y="300" />
  <junction id="ext_1_1_E" type="dead_end" x="300" y="200" />
  <junction id="ext_1_1_N" type="dead_end" x="200" y="300" />
  <edge id="e_0_0_E" from="n_0_0" to="n_1_0" numLanes="2" speed="13.89">
    <lane id="e_0_0_E_0" index="0" speed="13.89" length="200.0" shape="0,0 200,0" />
    <lane id="e_0_0_E_1" index="1" speed="13.89" length="200.0" shape="0,0 200,0" />
  </edge>
  <edge id="e_0_0_W" from="n_1_0" to="n_0_0" numLanes="2" speed="13.89">
    <lane id="e_0_0_W_0" index="0" speed="13.89" length="200.0" shape="200,0 0,0" />
    <lane id="e_0_0_W_1" index="1" speed="13.89" length="200.0" shape="200,0 0,0" />
  </edge>
  <edge id="e_0_0_N" from="n_0_0" to="n_0_1" numLanes="2" speed="13.89">
    <lane id="e_0_0_N_0" index="0" speed="13.89" length="200.0" shape="0,0 0,200" />
    <lane id="e_0_0_N_1" index="1" speed="13.89" length="200.0" shape="0,0 0,200" />
  </edge>
  <edge id="e_0_0_S" from="n_0_1" to="n_0_0" numLanes="2" speed="13.89">
    <lane id="e_0_0_S_0" index="0" speed="13.89" length="200.0" shape="0,200 0,0" />
    <lane id="e_0_0_S_1" index="1" speed="13.89" length="200.0" shape="0,200 0,0" />
  </edge>
  <edge id="e_1_0_N" from="n_1_0" to="n_1_1" numLanes="2" speed="13.89">
    <lane id="e_1_0_N_0" index="0" speed="13.89" length="200.0" shape="200,0 200,200" />
    <lane id="e_1_0_N_1" index="1" speed="13.89" length="200.0" shape="200,0 200,200" />
  </edge>
  <edge id="e_1_0_S" from="n_1_1" to="n_1_0" numLanes="2" speed="13.89">
    <lane id="e_1_0_S_0" index="0" speed="13.89" length="200.0" shape="200,200 200,0" />
    <lane id="e_1_0_S_1" index="1" speed="13.89" length="200.0" shape="200,200 200,0" />
  </edge>
  <edge id="e_0_1_E" from="n_0_1" to="n_1_1" numLanes="2" speed="13.89">
    <lane id="e_0_1_E_0" index="0" speed="13.89" length="200.0" shape="0,200 200,200" />
    <lane id="e_0_1_E_1" index="1" speed="13.89" length="200.0" shape="0,200 200,200" />
  </edge>
  <edge id="e_0_1_W" from="n_1_1" to="n_0_1" numLanes="2" speed="13.89">
    <lane id="e_0_1_W_0" index="0" speed="13.89" length="200.0" shape="200,200 0,200" />
    <lane id="e_0_1_W_1" index="1" speed="13.89" length="200.0" shape="200,200 0,200" />
  </edge>
  <edge id="in_ext_0_0_W" from="ext_0_0_W" to="n_0_0" numLanes="2" speed="13.89">
    <lane id="in_ext_0_0_W_0" index="0" speed="13.89" length="100.0" shape="-100,0 0,0" />
    <lane id="in_ext_0_0_W_1" index="1" speed="13.89" length="100.0" shape="-100,0 0,0" />
  </edge>
  <edge id="out_ext_0_0_W" from="n_0_0" to="ext_0_0_W" numLanes="2" speed="13.89">
    <lane id="out_ext_0_0_W_0" index="0" speed="13.89" length="100.0" shape="0,0 -100,0" />
    <lane id="out_ext_0_0_W_1" index="1" speed="13.89" length="100.0" shape="0,0 -100,0" />
  </edge>
  <edge id="in_ext_0_0_S" from="ext_0_0_S" to="n_0_0" numLanes="2" speed="13.89">
    <lane id="in_ext_0_0_S_0" index="0" speed="13.89" length="100.0" shape="0,-100 0,0" />
    <lane id="in_ext_0_0_S_1" index="1" speed="13.89" length="100.0" shape="0,-100 0,0" />
  </edge>
  <edge id="out_ext_0_0_S" from="n_0_0" to="ext_0_0_S" numLanes="2" speed="13.89">
    <lane id="out_ext_0_0_S_0" index="0" speed="13.89" length="100.0" shape="0,0 0,-100" />
    <lane id="out_ext_0_0_S_1" index="1" speed="13.89" length="100.0" shape="0,0 0,-100" />
  </edge>
  <edge id="in_ext_1_0_E" from="ext_1_0_E" to="n_1_0" numLanes="2" speed="13.89">
    <lane id="in_ext_1_0_E_0" index="0" speed="13.89" length="100.0" shape="300,0 200,0" />
    <lane id="in_ext_1_0_E_1" index="1" speed="13.89" length="100.0" shape="300,0 200,0" />
  </edge>
  <edge id="out_ext_1_0_E" from="n_1_0" to="ext_1_0_E" numLanes="2" speed="13.89">
    <lane id="out_ext_1_0_E_0" index="0" speed="13.89" length="100.0" shape="200,0 300,0" />
    <lane id="out_ext_1_0_E_1" index="1" speed="13.89" length="100.0" shape="200,0 300,0" />
  </edge>
  <edge id="in_ext_1_0_S" from="ext_1_0_S" to="n_1_0" numLanes="2" speed="13.89">
    <lane id="in_ext_1_0_S_0" index="0" speed="13.89" length="100.0" shape="200,-100 200,0" />
    <lane id="in_ext_1_0_S_1" index="1" speed="13.89" length="100.0" shape="200,-100 200,0" />
  </edge>
  <edge id="out_ext_1_0_S" from="n_1_0" to="ext_1_0_S" numLanes="2" speed="13.89">
    <lane id="out_ext_1_0_S_0" index="0" speed="13.89" length="100.0" shape="200,0 200,-100" />
    <lane id="out_ext_1_0_S_1" index="1" speed="13.89" length="100.0" shape="200,0 200,-100" />
  </edge>
  <edge id="in_ext_0_1_W" from="ext_0_1_W" to="n_0_1" numLanes="2" speed="13.89">
    <lane id="in_ext_0_1_W_0" index="0" speed="13.89" length="100.0" shape="-100,200 0,200" />
    <lane id="in_ext_0_1_W_1" index="1" speed="13.89" length="100.0" shape="-100,200 0,200" />
  </edge>
  <edge id="out_ext_0_1_W" from="n_0_1" to="ext_0_1_W" numLanes="2" speed="13.89">
    <lane id="out_ext_0_1_W_0" index="0" speed="13.89" length="100.0" shape="0,200 -100,200" />
    <lane id="out_ext_0_1_W_1" index="1" speed="13.89" length="100.0" shape="0,200 -100,200" />
  </edge>
  <edge id="in_ext_0_1_N" from="ext_0_1_N" to="n_0_1" numLanes="2" speed="13.89">
    <lane id="in_ext_0_1_N_0" index="0" speed="13.89" length="100.0" shape="0,300 0,200" />
    <lane id="in_ext_0_1_N_1" index="1" speed="13.89" length="100.0" shape="0,300 0,200" />
  </edge>
  <edge id="out_ext_0_1_N" from="n_0_1" to="ext_0_1_N" numLanes="2" speed="13.89">
    <lane id="out_ext_0_1_N_0" index="0" speed="13.89" length="100.0" shape="0,200 0,300" />
    <lane id="out_ext_0_1_N_1" index="1" speed="13.89" length="100.0" shape="0,200 0,300" />
  </edge>
  <edge id="in_ext_1_1_E" from="ext_1_1_E" to="n_1_1" numLanes="2" speed="13.89">
    <lane id="in_ext_1_1_E_0" index="0" speed="13.89" length="100.0" shape="300,200 200,200" />
    <lane id="in_ext_1_1_E_1" index="1" speed="13.89" length="100.0" shape="300,200 200,200" />
  </edge>
  <edge id="out_ext_1_1_E" from="n_1_1" to="ext_1_1_E" numLanes="2" speed="13.89">
    <lane id="out_ext_1_1_E_0" index="0" speed="13.89" length="100.0" shape="200,200 300,200" />
    <lane id="out_ext_1_1_E_1" index="1" speed="13.89" length="100.0" shape="200,200 300,200" />
  </edge>
  <edge id="in_ext_1_1_N" from="ext_1_1_N" to="n_1_1" numLanes="2" speed="13.89">
    <lane id="in_ext_1_1_N_0" index="0" speed="13.89" length="100.0" shape="200,300 200,200" />
    <lane id="in_ext_1_1_N_1" index="1" speed="13.89" length="100.0" shape="200,300 200,200" />
  </edge>
  <edge id="out_ext_1_1_N" from="n_1_1" to="ext_1_1_N" numLanes="2" speed="13.89">
    <lane id="out_ext_1_1_N_0" index="0" speed="13.89" length="100.0" shape="200,200 200,300" />
    <lane id="out_ext_1_1_N_1" index="1" speed="13.89" length="100.0" shape="200,200 200,300" />
  </edge>
  <tlLogic id="n_0_0" type="static" programID="0" offset="0">
    <phase duration="30" state="GGrrGGrr" />
    <phase duration="5" state="yyrryyrr" />
    <phase duration="30" state="rrGGrrGG" />
    <phase duration="5" state="rryyrryy" />
  </tlLogic>
  <tlLogic id="n_1_0" type="static" programID="0" offset="0">
    <phase duration="30" state="GGrrGGrr" />
    <phase duration="5" state="yyrryyrr" />
    <phase duration="30" state="rrGGrrGG" />
    <phase duration="5" state="rryyrryy" />
  </tlLogic>
  <tlLogic id="n_0_1" type="static" programID="0" offset="0">
    <phase duration="30" state="GGrrGGrr" />
    <phase duration="5" state="yyrryyrr" />
    <phase duration="30" state="rrGGrrGG" />
    <phase duration="5" state="rryyrryy" />
  </tlLogic>
  <tlLogic id="n_1_1" type="static" programID="0" offset="0">
    <phase duration="30" state="GGrrGGrr" />
    <phase duration="5" state="yyrryyrr" />
    <phase duration="30" state="rrGGrrGG" />
    <phase duration="5" state="rryyrryy" />
  </tlLogic>
</net>