<nodes><node id="n_0_0" x="0" y="0" type="traffic_light" /><node id="n_1_0" x="200" y="0" type="traffic_light" /><node id="n_0_1" x="0" y="200" type="traffic_light" /><node id="n_1_1" x="200" y="200" type="traffic_light" /><node id="ext_0_0_W" x="-100" y="0" type="priority" /><node id="ext_0_0_S" x="0" y="-100" type="priority" /><node id="ext_1_0_E" x="300" y="0" type="priority" /><node id="ext_1_0_S" x="200" y="-100" type="priority" /><node id="ext_0_1_W" x="-100" y="200" type="priority" /><node id="ext_0_1_N" x="0" y="300" type="priority" /><node id="ext_1_1_E" x="300" y="200" type="priority" /><node id="ext_1_1_N" x="200" y="300" type="priority" /></nodes>