<routes>
<vType id="car" accel="2.6" decel="4.5" length="5" maxSpeed="13.89"/>
<vehicle id="v0" type="car" depart="12.24"/>
<vehicle id="v1" type="car" depart="12.54"/>
<vehicle id="v2" type="car" depart="16.40"/>
<vehicle id="v3" type="car" depart="19.44"/>
<vehicle id="v4" type="car" depart="35.44"/>
<vehicle id="v5" type="car" depart="48.99"/>
<vehicle id="v6" type="car" depart="75.72"/>
<vehicle id="v7" type="car" depart="76.81"/>
<vehicle id="v8" type="car" depart="83.38"/>
<vehicle id="v9" type="car" depart="83.75"/>
<vehicle id="v10" type="car" depart="86.71"/>
<vehicle id="v11" type="car" depart="95.15"/>
<vehicle id="v12" type="car" depart="95.48"/>
<vehicle id="v13" type="car" depart="98.14"/>
<vehicle id="v14" type="car" depart="110.73"/>
<vehicle id="v15" type="car" depart="120.18"/>
<vehicle id="v16" type="car" depart="123.17"/>
<vehicle id="v17" type="car" depart="133.85"/>
<vehicle id="v18" type="car" depart="153.74"/>
<vehicle id="v19" type="car" depart="153.82"/>
<vehicle id="v20" type="car" depart="173.48"/>
<vehicle id="v21" type="car" depart="187.86"/>
<vehicle id="v22" type="car" depart="192.85"/>
<vehicle id="v23" type="car" depart="194.88"/>
<vehicle id="v24" type="car" depart="232.69"/>
<vehicle id="v25" type="car" depart="237.62"/>
<vehicle id="v26" type="car" depart="238.79"/>
<vehicle id="v27" type="car" depart="240.01"/>
<vehicle id="v28" type="car" depart="262.57"/>
<vehicle id="v29" type="car" depart="273.68"/>
<vehicle id="v30" type="car" depart="293.43"/>
<vehicle id="v31" type="car" depart="309.13"/>
<vehicle id="v32" type="car" depart="318.35"/>
<vehicle id="v33" type="car" depart="361.75"/>
<vehicle id="v34" type="car" depart="367.45"/>
<vehicle id="v35" type="car" depart="377.09"/>
<vehicle id="v36" type="car" depart="398.31"/>
<vehicle id="v37" type="car" depart="409.88"/>
<vehicle id="v38" type="car" depart="433.62"/>
<vehicle id="v39" type="car" depart="443.95"/>
<vehicle id="v40" type="car" depart="458.58"/>
<vehicle id="v41" type="car" depart="459.15"/>
<vehicle id="v42" type="car" depart="462.25"/>
<vehicle id="v43" type="car" depart="466.35"/>
<vehicle id="v44" type="car" depart="467.35"/>
<vehicle id="v45" type="car" depart="470.53"/>
<vehicle id="v46" type="car" depart="471.80"/>
<vehicle id="v47" type="car" depart="475.71"/>
<vehicle id="v48" type="car" depart="487.83"/>
<vehicle id="v49" type="car" depart="493.28"/>
<vehicle id="v50" type="car" depart="498.82"/>
<vehicle id="v51" type="car" depart="501.65"/>
<vehicle id="v52" type="car" depart="505.37"/>
<vehicle id="v53" type="car" depart="538.48"/>
<vehicle id="v54" type="car" depart="551.01"/>
<vehicle id="v55" type="car" depart="562.29"/>
<vehicle id="v56" type="car" depart="564.54"/>
<vehicle id="v57" type="car" depart="580.21"/>
<vehicle id="v58" type="car" depart="582.35"/>
<vehicle id="v59" type="car" depart="588.08"/>
<vehicle id="v60" type="car" depart="642.78"/>
<vehicle id="v61" type="car" depart="655.04"/>
<vehicle id="v62" type="car" depart="664.81"/>
<vehicle id="v63" type="car" depart="678.66"/>
<vehicle id="v64" type="car" depart="700.86"/>
<vehicle id="v65" type="car" depart="718.82"/>
<vehicle id="v66" type="car" depart="721.94"/>
<vehicle id="v67" type="car" depart="722.33"/>
<vehicle id="v68" type="car" depart="726.88"/>
<vehicle id="v69" type="car" depart="730.62"/>
<vehicle id="v70" type="car" depart="733.46"/>
<vehicle id="v71" type="car" depart="767.82"/>
<vehicle id="v72" type="car" depart="792.90"/>
<vehicle id="v73" type="car" depart="797.44"/>
<vehicle id="v74" type="car" depart="810.22"/>
<vehicle id="v75" type="car" depart="816.27"/>
<vehicle id="v76" type="car" depart="845.79"/>
<vehicle id="v77" type="car" depart="853.15"/>
<vehicle id="v78" type="car" depart="856.85"/>
<vehicle id="v79" type="car" depart="860.24"/>
<vehicle id="v80" type="car" depart="870.13"/>
<vehicle id="v81" type="car" depart="873.79"/>
<vehicle id="v82" type="car" depart="884.33"/>
<vehicle id="v83" type="car" depart="911.71"/>
<vehicle id="v84" type="car" depart="917.82"/>
<vehicle id="v85" type="car" depart="920.80"/>
<vehicle id="v86" type="car" depart="992.87"/>
<vehicle id="v87" type="car" depart="1001.42"/>
<vehicle id="v88" type="car" depart="1002.57"/>
<vehicle id="v89" type="car" depart="1003.15"/>
<vehicle id="v90" type="car" depart="1004.54"/>
<vehicle id="v91" type="car" depart="1016.39"/>
<vehicle id="v92" type="car" depart="1035.24"/>
<vehicle id="v93" type="car" depart="1041.82"/>
<vehicle id="v94" type="car" depart="1042.60"/>
<vehicle id="v95" type="car" depart="1048.37"/>
<vehicle id="v96" type="car" depart="1115.00"/>
<vehicle id="v97" type="car" depart="1124.04"/>
<vehicle id="v98" type="car" depart="1166.56"/>
<vehicle id="v99" type="car" depart="1190.22"/>
<vehicle id="v100" type="car" depart="1190.35"/>
<vehicle id="v101" type="car" depart="1205.66"/>
<vehicle id="v102" type="car" depart="1219.40"/>
<vehicle id="v103" type="car" depart="1228.64"/>
<vehicle id="v104" type="car" depart="1232.36"/>
<vehicle id="v105" type="car" depart="1244.65"/>
<vehicle id="v106" type="car" depart="1246.07"/>
<vehicle id="v107" type="car" depart="1252.92"/>
<vehicle id="v108" type="car" depart="1260.18"/>
<vehicle id="v109" type="car" depart="1297.08"/>
<vehicle id="v110" type="car" depart="1322.11"/>
<vehicle id="v111" type="car" depart="1325.78"/>
<vehicle id="v112" type="car" depart="1334.11"/>
<vehicle id="v113" type="car" depart="1336.47"/>
<vehicle id="v114" type="car" depart="1365.73"/>
<vehicle id="v115" type="car" depart="1390.26"/>
<vehicle id="v116" type="car" depart="1394.51"/>
<vehicle id="v117" type="car" depart="1406.73"/>
<vehicle id="v118" type="car" depart="1418.00"/>
<vehicle id="v119" type="car" depart="1419.99"/>
<vehicle id="v120" type="car" depart="1437.24"/>
<vehicle id="v121" type="car" depart="1446.55"/>
<vehicle id="v122" type="car" depart="1464.64"/>
<vehicle id="v123" type="car" depart="1473.71"/>
<vehicle id="v124" type="car" depart="1473.72"/>
<vehicle id="v125" type="car" depart="1478.42"/>
<vehicle id="v126" type="car" depart="1478.65"/>
<vehicle id="v127" type="car" depart="1510.41"/>
<vehicle id="v128" type="car" depart="1535.73"/>
<vehicle id="v129" type="car" depart="1557.11"/>
<vehicle id="v130" type="car" depart="1561.52"/>
<vehicle id="v131" type="car" depart="1562.24"/>
<vehicle id="v132" type="car" depart="1587.48"/>
<vehicle id="v133" type="car" depart="1622.72"/>
<vehicle id="v134" type="car" depart="1623.79"/>
<vehicle id="v135" type="car" depart="1631.78"/>
<vehicle id="v136" type="car" depart="1632.64"/>
<vehicle id="v137" type="car" depart="1649.80"/>
<vehicle id="v138" type="car" depart="1667.22"/>
<vehicle id="v139" type="car" depart="1668.87"/>
<vehicle id="v140" type="car" depart="1676.60"/>
<vehicle id="v141" type="car" depart="1686.18"/>
<vehicle id="v142" type="car" depart="1689.88"/>
<vehicle id="v143" type="car" depart="1714.59"/>
<vehicle id="v144" type="car" depart="1721.19"/>
<vehicle id="v145" type="car" depart="1724.04"/>
<vehicle id="v146" type="car" depart="1733.34"/>
<vehicle id="v147" type="car" depart="1749.05"/>
<vehicle id="v148" type="car" depart="1751.75"/>
<vehicle id="v149" type="car" depart="1756.23"/>
<vehicle id="v150" type="car" depart="1820.17"/>
<vehicle id="v151" type="car" depart="1832.77"/>
<vehicle id="v152" type="car" depart="1839.69"/>
<vehicle id="v153" type="car" depart="1848.43"/>
<vehicle id="v154" type="car" depart="1849.98"/>
<vehicle id="v155" type="car" depart="1853.03"/>
<vehicle id="v156" type="car" depart="1857.99"/>
<vehicle id="v157" type="car" depart="1868.64"/>
<vehicle id="v158" type="car" depart="1871.77"/>
<vehicle id="v159" type="car" depart="1874.76"/>
<vehicle id="v160" type="car" depart="1875.64"/>
<vehicle id="v161" type="car" depart="1887.61"/>
<vehicle id="v162" type="car" depart="1890.73"/>
<vehicle id="v163" type="car" depart="1919.03"/>
<vehicle id="v164" type="car" depart="1942.59"/>
<vehicle id="v165" type="car" depart="1943.47"/>
<vehicle id="v166" type="car" depart="1946.73"/>
<vehicle id="v167" type="car" depart="1960.00"/>
<vehicle id="v168" type="car" depart="1962.89"/>
<vehicle id="v169" type="car" depart="1964.60"/>
<vehicle id="v170" type="car" depart="1997.49"/>
<vehicle id="v171" type="car" depart="2007.65"/>
<vehicle id="v172" type="car" depart="2015.33"/>
<vehicle id="v173" type="car" depart="2033.75"/>
<vehicle id="v174" type="car" depart="2053.53"/>
<vehicle id="v175" type="car" depart="2056.06"/>
<vehicle id="v176" type="car" depart="2057.28"/>
<vehicle id="v177" type="car" depart="2064.05"/>
<vehicle id="v178" type="car" depart="2070.66"/>
<vehicle id="v179" type="car" depart="2078.21"/>
<vehicle id="v180" type="car" depart="2093.88"/>
<vehicle id="v181" type="car" depart="2107.31"/>
<vehicle id="v182" type="car" depart="2157.06"/>
<vehicle id="v183" type="car" depart="2158.30"/>
<vehicle id="v184" type="car" depart="2164.48"/>
<vehicle id="v185" type="car" depart="2169.46"/>
<vehicle id="v186" type="car" depart="2193.19"/>
<vehicle id="v187" type="car" depart="2196.63"/>
<vehicle id="v188" type="car" depart="2199.16"/>
<vehicle id="v189" type="car" depart="2206.30"/>
<vehicle id="v190" type="car" depart="2212.88"/>
<vehicle id="v191" type="car" depart="2216.79"/>
<vehicle id="v192" type="car" depart="2220.24"/>
<vehicle id="v193" type="car" depart="2251.05"/>
<vehicle id="v194" type="car" depart="2258.08"/>
<vehicle id="v195" type="car" depart="2281.79"/>
<vehicle id="v196" type="car" depart="2291.38"/>
<vehicle id="v197" type="car" depart="2292.00"/>
<vehicle id="v198" type="car" depart="2378.88"/>
<vehicle id="v199" type="car" depart="2400.57"/>
<vehicle id="v200" type="car" depart="2442.26"/>
<vehicle id="v201" type="car" depart="2473.56"/>
<vehicle id="v202" type="car" depart="2496.22"/>
<vehicle id="v203" type="car" depart="2498.41"/>
<vehicle id="v204" type="car" depart="2506.38"/>
<vehicle id="v205" type="car" depart="2509.27"/>
<vehicle id="v206" type="car" depart="2515.42"/>
<vehicle id="v207" type="car" depart="2516.15"/>
<vehicle id="v208" type="car" depart="2521.86"/>
<vehicle id="v209" type="car" depart="2572.51"/>
<vehicle id="v210" type="car" depart="2576.21"/>
<vehicle id="v211" type="car" depart="2594.60"/>
<vehicle id="v212" type="car" depart="2601.88"/>
<vehicle id="v213" type="car" depart="2608.48"/>
<vehicle id="v214" type="car" depart="2646.33"/>
<vehicle id="v215" type="car" depart="2710.97"/>
<vehicle id="v216" type="car" depart="2720.71"/>
<vehicle id="v217" type="car" depart="2735.91"/>
<vehicle id="v218" type="car" depart="2737.93"/>
<vehicle id="v219" type="car" depart="2742.16"/>
<vehicle id="v220" type="car" depart="2783.73"/>
<vehicle id="v221" type="car" depart="2794.12"/>
<vehicle id="v222" type="car" depart="2803.49"/>
<vehicle id="v223" type="car" depart="2820.03"/>
<vehicle id="v224" type="car" depart="2820.74"/>
<vehicle id="v225" type="car" depart="2831.27"/>
<vehicle id="v226" type="car" depart="2839.65"/>
<vehicle id="v227" type="car" depart="2862.64"/>
<vehicle id="v228" type="car" depart="2864.69"/>
<vehicle id="v229" type="car" depart="2903.56"/>
<vehicle id="v230" type="car" depart="2904.56"/>
<vehicle id="v231" type="car" depart="2907.03"/>
<vehicle id="v232" type="car" depart="2917.87"/>
<vehicle id="v233" type="car" depart="2931.37"/>
<vehicle id="v234" type="car" depart="2934.59"/>
<vehicle id="v235" type="car" depart="2936.12"/>
<vehicle id="v236" type="car" depart="2962.64"/>
<vehicle id="v237" type="car" depart="2966.03"/>
<vehicle id="v238" type="car" depart="2976.86"/>
<vehicle id="v239" type="car" depart="2988.45"/>
<vehicle id="v240" type="car" depart="2994.97"/>
<vehicle id="v241" type="car" depart="3005.49"/>
<vehicle id="v242" type="car" depart="3014.37"/>
<vehicle id="v243" type="car" depart="3047.11"/>
<vehicle id="v244" type="car" depart="3049.85"/>
<vehicle id="v245" type="car" depart="3064.97"/>
<vehicle id="v246" type="car" depart="3068.24"/>
<vehicle id="v247" type="car" depart="3074.29"/>
<vehicle id="v248" type="car" depart="3087.65"/>
<vehicle id="v249" type="car" depart="3091.93"/>
<vehicle id="v250" type="car" depart="3096.49"/>
<vehicle id="v251" type="car" depart="3113.22"/>
<vehicle id="v252" type="car" depart="3114.12"/>
<vehicle id="v253" type="car" depart="3121.48"/>
<vehicle id="v254" type="car" depart="3199.15"/>
<vehicle id="v255" type="car" depart="3265.70"/>
<vehicle id="v256" type="car" depart="3266.61"/>
<vehicle id="v257" type="car" depart="3269.49"/>
<vehicle id="v258" type="car" depart="3273.18"/>
<vehicle id="v259" type="car" depart="3305.67"/>
<vehicle id="v260" type="car" depart="3331.20"/>
<vehicle id="v261" type="car" depart="3356.57"/>
<vehicle id="v262" type="car" depart="3362.10"/>
<vehicle id="v263" type="car" depart="3364.16"/>
<vehicle id="v264" type="car" depart="3385.69"/>
<vehicle id="v265" type="car" depart="3400.28"/>
<vehicle id="v266" type="car" depart="3411.63"/>
<vehicle id="v267" type="car" depart="3463.97"/>
<vehicle id="v268" type="car" depart="3476.70"/>
<vehicle id="v269" type="car" depart="3476.79"/>
<vehicle id="v270" type="car" depart="3497.18"/>
<vehicle id="v271" type="car" depart="3501.45"/>
<vehicle id="v272" type="car" depart="3514.52"/>
<vehicle id="v273" type="car" depart="3548.07"/>
<vehicle id="v274" type="car" depart="3549.80"/>
<vehicle id="v275" type="car" depart="3551.27"/>
<vehicle id="v276" type="car" depart="3552.63"/>
<vehicle id="v277" type="car" depart="3562.29"/>
<vehicle id="v278" type="car" depart="3566.11"/>
<vehicle id="v279" type="car" depart="3577.25"/>
<vehicle id="v280" type="car" depart="3592.42"/>
<vehicle id="v281" type="car" depart="3595.16"/>
</routes>
