<nodes><node id="n_0_0" x="0" y="0" type="traffic_light" /><node id="n_1_0" x="200" y="0" type="traffic_light" /><node id="n_2_0" x="400" y="0" type="traffic_light" /><node id="n_0_1" x="0" y="200" type="traffic_light" /><node id="n_1_1" x="200" y="200" type="traffic_light" /><node id="n_2_1" x="400" y="200" type="traffic_light" /><node id="n_0_2" x="0" y="400" type="traffic_light" /><node id="n_1_2" x="200" y="400" type="traffic_light" /><node id="n_2_2" x="400" y="400" type="traffic_light" /><node id="ext_0_0_W" x="-100" y="0" type="priority" /><node id="ext_0_0_S" x="0" y="-100" type="priority" /><node id="ext_1_0_S" x="200" y="-100" type="priority" /><node id="ext_2_0_E" x="500" y="0" type="priority" /><node id="ext_2_0_S" x="400" y="-100" type="priority" /><node id="ext_0_1_W" x="-100" y="200" type="priority" /><node id="ext_2_1_E" x="500" y="200" type="priority" /><node id="ext_0_2_W" x="-100" y="400" type="priority" /><node id="ext_0_2_N" x="0" y="500" type="priority" /><node id="ext_1_2_N" x="200" y="500" type="priority" /><node id="ext_2_2_E" x="500" y="400" type="priority" /><node id="ext_2_2_N" x="400" y="500" type="priority" /></nodes>