<routes>
<vType id="car" accel="2.6" decel="4.5" length="5" maxSpeed="13.89"/>
<vehicle id="v0" type="car" depart="3.06"/>
<vehicle id="v1" type="car" depart="3.14"/>
<vehicle id="v2" type="car" depart="4.10"/>
<vehicle id="v3" type="car" depart="4.86"/>
<vehicle id="v4" type="car" depart="8.86"/>
<vehicle id="v5" type="car" depart="12.25"/>
<vehicle id="v6" type="car" depart="18.93"/>
<vehicle id="v7" type="car" depart="19.20"/>
<vehicle id="v8" type="car" depart="20.85"/>
<vehicle id="v9" type="car" depart="20.94"/>
<vehicle id="v10" type="car" depart="21.68"/>
<vehicle id="v11" type="car" depart="23.79"/>
<vehicle id="v12" type="car" depart="23.87"/>
<vehicle id="v13" type="car" depart="24.53"/>
<vehicle id="v14" type="car" depart="27.68"/>
<vehicle id="v15" type="car" depart="30.04"/>
<vehicle id="v16" type="car" depart="30.79"/>
<vehicle id="v17" type="car" depart="33.46"/>
<vehicle id="v18" type="car" depart="38.43"/>
<vehicle id="v19" type="car" depart="38.45"/>
<vehicle id="v20" type="car" depart="43.37"/>
<vehicle id="v21" type="car" depart="46.96"/>
<vehicle id="v22" type="car" depart="48.21"/>
<vehicle id="v23" type="car" depart="48.72"/>
<vehicle id="v24" type="car" depart="58.17"/>
<vehicle id="v25" type="car" depart="59.40"/>
<vehicle id="v26" type="car" depart="59.70"/>
<vehicle id="v27" type="car" depart="60.00"/>
<vehicle id="v28" type="car" depart="65.64"/>
<vehicle id="v29" type="car" depart="68.42"/>
<vehicle id="v30" type="car" depart="73.36"/>
<vehicle id="v31" type="car" depart="77.28"/>
<vehicle id="v32" type="car" depart="79.59"/>
<vehicle id="v33" type="car" depart="90.44"/>
<vehicle id="v34" type="car" depart="91.86"/>
<vehicle id="v35" type="car" depart="94.27"/>
<vehicle id="v36" type="car" depart="99.58"/>
<vehicle id="v37" type="car" depart="102.47"/>
<vehicle id="v38" type="car" depart="108.40"/>
<vehicle id="v39" type="car" depart="110.99"/>
<vehicle id="v40" type="car" depart="114.65"/>
<vehicle id="v41" type="car" depart="114.79"/>
<vehicle id="v42" type="car" depart="115.56"/>
<vehicle id="v43" type="car" depart="116.59"/>
<vehicle id="v44" type="car" depart="116.84"/>
<vehicle id="v45" type="car" depart="117.63"/>
<vehicle id="v46" type="car" depart="117.95"/>
<vehicle id="v47" type="car" depart="118.93"/>
<vehicle id="v48" type="car" depart="121.96"/>
<vehicle id="v49" type="car" depart="123.32"/>
<vehicle id="v50" type="car" depart="124.71"/>
<vehicle id="v51" type="car" depart="125.41"/>
<vehicle id="v52" type="car" depart="126.34"/>
<vehicle id="v53" type="car" depart="134.62"/>
<vehicle id="v54" type="car" depart="137.75"/>
<vehicle id="v55" type="car" depart="140.57"/>
<vehicle id="v56" type="car" depart="141.13"/>
<vehicle id="v57" type="car" depart="145.05"/>
<vehicle id="v58" type="car" depart="145.59"/>
<vehicle id="v59" type="car" depart="147.02"/>
<vehicle id="v60" type="car" depart="160.70"/>
<vehicle id="v61" type="car" depart="163.76"/>
<vehicle id="v62" type="car" depart="166.20"/>
<vehicle id="v63" type="car" depart="169.66"/>
<vehicle id="v64" type="car" depart="175.22"/>
<vehicle id="v65" type="car" depart="179.70"/>
<vehicle id="v66" type="car" depart="180.48"/>
<vehicle id="v67" type="car" depart="180.58"/>
<vehicle id="v68" type="car" depart="181.72"/>
<vehicle id="v69" type="car" depart="182.65"/>
<vehicle id="v70" type="car" depart="183.37"/>
<vehicle id="v71" type="car" depart="191.95"/>
<vehicle id="v72" type="car" depart="198.23"/>
<vehicle id="v73" type="car" depart="199.36"/>
<vehicle id="v74" type="car" depart="202.56"/>
<vehicle id="v75" type="car" depart="204.07"/>
<vehicle id="v76" type="car" depart="211.45"/>
<vehicle id="v77" type="car" depart="213.29"/>
<vehicle id="v78" type="car" depart="214.21"/>
<vehicle id="v79" type="car" depart="215.06"/>
<vehicle id="v80" type="car" depart="217.53"/>
<vehicle id="v81" type="car" depart="218.45"/>
<vehicle id="v82" type="car" depart="221.08"/>
<vehicle id="v83" type="car" depart="227.93"/>
<vehicle id="v84" type="car" depart="229.46"/>
<vehicle id="v85" type="car" depart="230.20"/>
<vehicle id="v86" type="car" depart="248.22"/>
<vehicle id="v87" type="car" depart="250.36"/>
<vehicle id="v88" type="car" depart="250.64"/>
<vehicle id="v89" type="car" depart="250.79"/>
<vehicle id="v90" type="car" depart="251.13"/>
<vehicle id="v91" type="car" depart="254.10"/>
<vehicle id="v92" type="car" depart="258.81"/>
<vehicle id="v93" type="car" depart="260.45"/>
<vehicle id="v94" type="car" depart="260.65"/>
<vehicle id="v95" type="car" depart="262.09"/>
<vehicle id="v96" type="car" depart="278.75"/>
<vehicle id="v97" type="car" depart="281.01"/>
<vehicle id="v98" type="car" depart="291.64"/>
<vehicle id="v99" type="car" depart="297.55"/>
<vehicle id="v100" type="car" depart="297.59"/>
<vehicle id="v101" type="car" depart="301.42"/>
<vehicle id="v102" type="car" depart="304.85"/>
<vehicle id="v103" type="car" depart="307.16"/>
<vehicle id="v104" type="car" depart="308.09"/>
<vehicle id="v105" type="car" depart="311.16"/>
<vehicle id="v106" type="car" depart="311.52"/>
<vehicle id="v107" type="car" depart="313.23"/>
<vehicle id="v108" type="car" depart="315.04"/>
<vehicle id="v109" type="car" depart="324.27"/>
<vehicle id="v110" type="car" depart="330.53"/>
<vehicle id="v111" type="car" depart="331.45"/>
<vehicle id="v112" type="car" depart="333.53"/>
<vehicle id="v113" type="car" depart="334.12"/>
<vehicle id="v114" type="car" depart="341.43"/>
<vehicle id="v115" type="car" depart="347.56"/>
<vehicle id="v116" type="car" depart="348.63"/>
<vehicle id="v117" type="car" depart="351.68"/>
<vehicle id="v118" type="car" depart="354.50"/>
<vehicle id="v119" type="car" depart="355.00"/>
<vehicle id="v120" type="car" depart="359.31"/>
<vehicle id="v121" type="car" depart="361.64"/>
<vehicle id="v122" type="car" depart="366.16"/>
<vehicle id="v123" type="car" depart="368.43"/>
<vehicle id="v124" type="car" depart="368.43"/>
<vehicle id="v125" type="car" depart="369.60"/>
<vehicle id="v126" type="car" depart="369.66"/>
<vehicle id="v127" type="car" depart="377.60"/>
<vehicle id="v128" type="car" depart="383.93"/>
<vehicle id="v129" type="car" depart="389.28"/>
<vehicle id="v130" type="car" depart="390.38"/>
<vehicle id="v131" type="car" depart="390.56"/>
<vehicle id="v132" type="car" depart="396.87"/>
<vehicle id="v133" type="car" depart="405.68"/>
<vehicle id="v134" type="car" depart="405.95"/>
<vehicle id="v135" type="car" depart="407.94"/>
<vehicle id="v136" type="car" depart="408.16"/>
<vehicle id="v137" type="car" depart="412.45"/>
<vehicle id="v138" type="car" depart="416.80"/>
<vehicle id="v139" type="car" depart="417.22"/>
<vehicle id="v140" type="car" depart="419.15"/>
<vehicle id="v141" type="car" depart="421.55"/>
<vehicle id="v142" type="car" depart="422.47"/>
<vehicle id="v143" type="car" depart="428.65"/>
<vehicle id="v144" type="car" depart="430.30"/>
<vehicle id="v145" type="car" depart="431.01"/>
<vehicle id="v146" type="car" depart="433.34"/>
<vehicle id="v147" type="car" depart="437.26"/>
<vehicle id="v148" type="car" depart="437.94"/>
<vehicle id="v149" type="car" depart="439.06"/>
<vehicle id="v150" type="car" depart="455.04"/>
<vehicle id="v151" type="car" depart="458.19"/>
<vehicle id="v152" type="car" depart="459.92"/>
<vehicle id="v153" type="car" depart="462.11"/>
<vehicle id="v154" type="car" depart="462.50"/>
<vehicle id="v155" type="car" depart="463.26"/>
<vehicle id="v156" type="car" depart="464.50"/>
<vehicle id="v157" type="car" depart="467.16"/>
<vehicle id="v158" type="car" depart="467.94"/>
<vehicle id="v159" type="car" depart="468.69"/>
<vehicle id="v160" type="car" depart="468.91"/>
<vehicle id="v161" type="car" depart="471.90"/>
<vehicle id="v162" type="car" depart="472.68"/>
<vehicle id="v163" type="car" depart="479.76"/>
<vehicle id="v164" type="car" depart="485.65"/>
<vehicle id="v165" type="car" depart="485.87"/>
<vehicle id="v166" type="car" depart="486.68"/>
<vehicle id="v167" type="car" depart="490.00"/>
<vehicle id="v168" type="car" depart="490.72"/>
<vehicle id="v169" type="car" depart="491.15"/>
<vehicle id="v170" type="car" depart="499.37"/>
<vehicle id="v171" type="car" depart="501.91"/>
<vehicle id="v172" type="car" depart="503.83"/>
<vehicle id="v173" type="car" depart="508.44"/>
<vehicle id="v174" type="car" depart="513.38"/>
<vehicle id="v175" type="car" depart="514.01"/>
<vehicle id="v176" type="car" depart="514.32"/>
<vehicle id="v177" type="car" depart="516.01"/>
<vehicle id="v178" type="car" depart="517.67"/>
<vehicle id="v179" type="car" depart="519.55"/>
<vehicle id="v180" type="car" depart="523.47"/>
<vehicle id="v181" type="car" depart="526.83"/>
<vehicle id="v182" type="car" depart="539.26"/>
<vehicle id="v183" type="car" depart="539.58"/>
<vehicle id="v184" type="car" depart="541.12"/>
<vehicle id="v185" type="car" depart="542.36"/>
<vehicle id="v186" type="car" depart="548.30"/>
<vehicle id="v187" type="car" depart="549.16"/>
<vehicle id="v188" type="car" depart="549.79"/>
<vehicle id="v189" type="car" depart="551.58"/>
<vehicle id="v190" type="car" depart="553.22"/>
<vehicle id="v191" type="car" depart="554.20"/>
<vehicle id="v192" type="car" depart="555.06"/>
<vehicle id="v193" type="car" depart="562.76"/>
<vehicle id="v194" type="car" depart="564.52"/>
<vehicle id="v195" type="car" depart="570.45"/>
<vehicle id="v196" type="car" depart="572.84"/>
<vehicle id="v197" type="car" depart="573.00"/>
<vehicle id="v198" type="car" depart="594.72"/>
<vehicle id="v199" type="car" depart="600.14"/>
<vehicle id="v200" type="car" depart="610.56"/>
<vehicle id="v201" type="car" depart="618.39"/>
<vehicle id="v202" type="car" depart="624.06"/>
<vehicle id="v203" type="car" depart="624.60"/>
<vehicle id="v204" type="car" depart="626.60"/>
<vehicle id="v205" type="car" depart="627.32"/>
<vehicle id="v206" type="car" depart="628.86"/>
<vehicle id="v207" type="car" depart="629.04"/>
<vehicle id="v208" type="car" depart="630.47"/>
<vehicle id="v209" type="car" depart="643.13"/>
<vehicle id="v210" type="car" depart="644.05"/>
<vehicle id="v211" type="car" depart="648.65"/>
<vehicle id="v212" type="car" depart="650.47"/>
<vehicle id="v213" type="car" depart="652.12"/>
<vehicle id="v214" type="car" depart="661.58"/>
<vehicle id="v215" type="car" depart="677.74"/>
<vehicle id="v216" type="car" depart="680.18"/>
<vehicle id="v217" type="car" depart="683.98"/>
<vehicle id="v218" type="car" depart="684.48"/>
<vehicle id="v219" type="car" depart="685.54"/>
<vehicle id="v220" type="car" depart="695.93"/>
<vehicle id="v221" type="car" depart="698.53"/>
<vehicle id="v222" type="car" depart="700.87"/>
<vehicle id="v223" type="car" depart="705.01"/>
<vehicle id="v224" type="car" depart="705.18"/>
<vehicle id="v225" type="car" depart="707.82"/>
<vehicle id="v226" type="car" depart="709.91"/>
<vehicle id="v227" type="car" depart="715.66"/>
<vehicle id="v228" type="car" depart="716.17"/>
<vehicle id="v229" type="car" depart="725.89"/>
<vehicle id="v230" type="car" depart="726.14"/>
<vehicle id="v231" type="car" depart="726.76"/>
<vehicle id="v232" type="car" depart="729.47"/>
<vehicle id="v233" type="car" depart="732.84"/>
<vehicle id="v234" type="car" depart="733.65"/>
<vehicle id="v235" type="car" depart="734.03"/>
<vehicle id="v236" type="car" depart="740.66"/>
<vehicle id="v237" type="car" depart="741.51"/>
<vehicle id="v238" type="car" depart="744.22"/>
<vehicle id="v239" type="car" depart="747.11"/>
<vehicle id="v240" type="car" depart="748.74"/>
<vehicle id="v241" type="car" depart="751.37"/>
<vehicle id="v242" type="car" depart="753.59"/>
<vehicle id="v243" type="car" depart="761.78"/>
<vehicle id="v244" type="car" depart="762.46"/>
<vehicle id="v245" type="car" depart="766.24"/>
<vehicle id="v246" type="car" depart="767.06"/>
<vehicle id="v247" type="car" depart="768.57"/>
<vehicle id="v248" type="car" depart="771.91"/>
<vehicle id="v249" type="car" depart="772.98"/>
<vehicle id="v250" type="car" depart="774.12"/>
<vehicle id="v251" type="car" depart="778.30"/>
<vehicle id="v252" type="car" depart="778.53"/>
<vehicle id="v253" type="car" depart="780.37"/>
<vehicle id="v254" type="car" depart="799.79"/>
<vehicle id="v255" type="car" depart="816.42"/>
<vehicle id="v256" type="car" depart="816.65"/>
<vehicle id="v257" type="car" depart="817.37"/>
<vehicle id="v258" type="car" depart="818.30"/>
<vehicle id="v259" type="car" depart="826.42"/>
<vehicle id="v260" type="car" depart="832.80"/>
<vehicle id="v261" type="car" depart="839.14"/>
<vehicle id="v262" type="car" depart="840.53"/>
<vehicle id="v263" type="car" depart="841.04"/>
<vehicle id="v264" type="car" depart="846.42"/>
<vehicle id="v265" type="car" depart="850.07"/>
<vehicle id="v266" type="car" depart="852.91"/>
<vehicle id="v267" type="car" depart="865.99"/>
<vehicle id="v268" type="car" depart="869.18"/>
<vehicle id="v269" type="car" depart="869.20"/>
<vehicle id="v270" type="car" depart="874.30"/>
<vehicle id="v271" type="car" depart="875.36"/>
<vehicle id="v272" type="car" depart="878.63"/>
<vehicle id="v273" type="car" depart="887.02"/>
<vehicle id="v274" type="car" depart="887.45"/>
<vehicle id="v275" type="car" depart="887.82"/>
<vehicle id="v276" type="car" depart="888.16"/>
<vehicle id="v277" type="car" depart="890.57"/>
<vehicle id="v278" type="car" depart="891.53"/>
<vehicle id="v279" type="car" depart="894.31"/>
<vehicle id="v280" type="car" depart="898.11"/>
<vehicle id="v281" type="car" depart="898.79"/>
<vehicle id="v282" type="car" depart="901.81"/>
<vehicle id="v283" type="car" depart="902.73"/>
<vehicle id="v284" type="car" depart="904.74"/>
<vehicle id="v285" type="car" depart="911.81"/>
<vehicle id="v286" type="car" depart="917.42"/>
<vehicle id="v287" type="car" depart="917.71"/>
<vehicle id="v288" type="car" depart="919.37"/>
<vehicle id="v289" type="car" depart="920.34"/>
<vehicle id="v290" type="car" depart="920.35"/>
<vehicle id="v291" type="car" depart="924.77"/>
<vehicle id="v292" type="car" depart="927.81"/>
<vehicle id="v293" type="car" depart="928.73"/>
<vehicle id="v294" type="car" depart="932.78"/>
<vehicle id="v295" type="car" depart="935.19"/>
<vehicle id="v296" type="car" depart="936.86"/>
<vehicle id="v297" type="car" depart="936.89"/>
<vehicle id="v298" type="car" depart="937.13"/>
<vehicle id="v299" type="car" depart="943.57"/>
<vehicle id="v300" type="car" depart="950.59"/>
<vehicle id="v301" type="car" depart="952.96"/>
<vehicle id="v302" type="car" depart="958.36"/>
<vehicle id="v303" type="car" depart="960.98"/>
<vehicle id="v304" type="car" depart="961.46"/>
<vehicle id="v305" type="car" depart="961.87"/>
<vehicle id="v306" type="car" depart="962.97"/>
<vehicle id="v307" type="car" depart="969.85"/>
<vehicle id="v308" type="car" depart="974.62"/>
<vehicle id="v309" type="car" depart="980.53"/>
<vehicle id="v310" type="car" depart="987.41"/>
<vehicle id="v311" type="car" depart="988.12"/>
<vehicle id="v312" type="car" depart="988.98"/>
<vehicle id="v313" type="car" depart="989.30"/>
<vehicle id="v314" type="car" depart="993.85"/>
<vehicle id="v315" type="car" depart="1000.31"/>
<vehicle id="v316" type="car" depart="1001.88"/>
<vehicle id="v317" type="car" depart="1004.79"/>
<vehicle id="v318" type="car" depart="1005.29"/>
<vehicle id="v319" type="car" depart="1013.26"/>
<vehicle id="v320" type="car" depart="1019.26"/>
<vehicle id="v321" type="car" depart="1030.48"/>
<vehicle id="v322" type="car" depart="1035.47"/>
<vehicle id="v323" type="car" depart="1041.87"/>
<vehicle id="v324" type="car" depart="1041.94"/>
<vehicle id="v325" type="car" depart="1045.95"/>
<vehicle id="v326" type="car" depart="1047.16"/>
<vehicle id="v327" type="car" depart="1055.17"/>
<vehicle id="v328" type="car" depart="1060.03"/>
<vehicle id="v329" type="car" depart="1066.02"/>
<vehicle id="v330" type="car" depart="1071.01"/>
<vehicle id="v331" type="car" depart="1071.94"/>
<vehicle id="v332" type="car" depart="1076.59"/>
<vehicle id="v333" type="car" depart="1076.93"/>
<vehicle id="v334" type="car" depart="1083.10"/>
<vehicle id="v335" type="car" depart="1088.97"/>
<vehicle id="v336" type="car" depart="1089.73"/>
<vehicle id="v337" type="car" depart="1094.81"/>
<vehicle id="v338" type="car" depart="1096.66"/>
<vehicle id="v339" type="car" depart="1097.76"/>
<vehicle id="v340" type="car" depart="1102.52"/>
<vehicle id="v341" type="car" depart="1103.29"/>
<vehicle id="v342" type="car" depart="1103.36"/>
<vehicle id="v343" type="car" depart="1104.01"/>
<vehicle id="v344" type="car" depart="1105.20"/>
<vehicle id="v345" type="car" depart="1111.19"/>
<vehicle id="v346" type="car" depart="1121.42"/>
<vehicle id="v347" type="car" depart="1122.40"/>
<vehicle id="v348" type="car" depart="1125.48"/>
<vehicle id="v349" type="car" depart="1127.01"/>
<vehicle id="v350" type="car" depart="1138.92"/>
<vehicle id="v351" type="car" depart="1141.22"/>
<vehicle id="v352" type="car" depart="1149.63"/>
<vehicle id="v353" type="car" depart="1149.99"/>
<vehicle id="v354" type="car" depart="1160.55"/>
<vehicle id="v355" type="car" depart="1161.14"/>
<vehicle id="v356" type="car" depart="1171.00"/>
<vehicle id="v357" type="car" depart="1171.92"/>
<vehicle id="v358" type="car" depart="1172.27"/>
<vehicle id="v359" type="car" depart="1173.98"/>
<vehicle id="v360" type="car" depart="1177.89"/>
<vehicle id="v361" type="car" depart="1179.02"/>
<vehicle id="v362" type="car" depart="1181.81"/>
<vehicle id="v363" type="car" depart="1183.96"/>
<vehicle id="v364" type="car" depart="1185.42"/>
<vehicle id="v365" type="car" depart="1188.00"/>
<vehicle id="v366" type="car" depart="1188.88"/>
<vehicle id="v367" type="car" depart="1192.58"/>
<vehicle id="v368" type="car" depart="1192.59"/>
<vehicle id="v369" type="car" depart="1200.38"/>
<vehicle id="v370" type="car" depart="1202.70"/>
<vehicle id="v371" type="car" depart="1206.52"/>
<vehicle id="v372" type="car" depart="1210.58"/>
<vehicle id="v373" type="car" depart="1213.91"/>
<vehicle id="v374" type="car" depart="1215.27"/>
<vehicle id="v375" type="car" depart="1215.49"/>
<vehicle id="v376" type="car" depart="1218.76"/>
<vehicle id="v377" type="car" depart="1219.96"/>
<vehicle id="v378" type="car" depart="1221.09"/>
<vehicle id="v379" type="car" depart="1226.75"/>
<vehicle id="v380" type="car" depart="1230.56"/>
<vehicle id="v381" type="car" depart="1231.63"/>
<vehicle id="v382" type="car" depart="1232.74"/>
<vehicle id="v383" type="car" depart="1234.32"/>
<vehicle id="v384" type="car" depart="1235.86"/>
<vehicle id="v385" type="car" depart="1236.91"/>
<vehicle id="v386" type="car" depart="1237.32"/>
<vehicle id="v387" type="car" depart="1238.96"/>
<vehicle id="v388" type="car" depart="1247.42"/>
<vehicle id="v389" type="car" depart="1250.81"/>
<vehicle id="v390" type="car" depart="1257.80"/>
<vehicle id="v391" type="car" depart="1260.67"/>
<vehicle id="v392" type="car" depart="1261.75"/>
<vehicle id="v393" type="car" depart="1264.13"/>
<vehicle id="v394" type="car" depart="1264.13"/>
<vehicle id="v395" type="car" depart="1265.14"/>
<vehicle id="v396" type="car" depart="1266.83"/>
<vehicle id="v397" type="car" depart="1269.43"/>
<vehicle id="v398" type="car" depart="1272.62"/>
<vehicle id="v399" type="car" depart="1274.50"/>
<vehicle id="v400" type="car" depart="1276.25"/>
<vehicle id="v401" type="car" depart="1276.97"/>
<vehicle id="v402" type="car" depart="1278.89"/>
<vehicle id="v403" type="car" depart="1285.84"/>
<vehicle id="v404" type="car" depart="1290.61"/>
<vehicle id="v405" type="car" depart="1291.16"/>
<vehicle id="v406" type="car" depart="1291.43"/>
<vehicle id="v407" type="car" depart="1293.60"/>
<vehicle id="v408" type="car" depart="1296.61"/>
<vehicle id="v409" type="car" depart="1297.83"/>
<vehicle id="v410" type="car" depart="1302.95"/>
<vehicle id="v411" type="car" depart="1307.13"/>
<vehicle id="v412" type="car" depart="1310.48"/>
<vehicle id="v413" type="car" depart="1311.24"/>
<vehicle id="v414" type="car" depart="1311.91"/>
<vehicle id="v415" type="car" depart="1311.98"/>
<vehicle id="v416" type="car" depart="1312.82"/>
<vehicle id="v417" type="car" depart="1314.76"/>
<vehicle id="v418" type="car" depart="1320.44"/>
<vehicle id="v419" type="car" depart="1320.67"/>
<vehicle id="v420" type="car" depart="1322.28"/>
<vehicle id="v421" type="car" depart="1325.26"/>
<vehicle id="v422" type="car" depart="1325.90"/>
<vehicle id="v423" type="car" depart="1329.48"/>
<vehicle id="v424" type="car" depart="1331.53"/>
<vehicle id="v425" type="car" depart="1332.37"/>
<vehicle id="v426" type="car" depart="1335.57"/>
<vehicle id="v427" type="car" depart="1335.58"/>
<vehicle id="v428" type="car" depart="1339.75"/>
<vehicle id="v429" type="car" depart="1344.16"/>
<vehicle id="v430" type="car" depart="1344.50"/>
<vehicle id="v431" type="car" depart="1346.16"/>
<vehicle id="v432" type="car" depart="1346.74"/>
<vehicle id="v433" type="car" depart="1356.25"/>
<vehicle id="v434" type="car" depart="1358.44"/>
<vehicle id="v435" type="car" depart="1358.60"/>
<vehicle id="v436" type="car" depart="1359.45"/>
<vehicle id="v437" type="car" depart="1365.11"/>
<vehicle id="v438" type="car" depart="1366.94"/>
<vehicle id="v439" type="car" depart="1371.79"/>
<vehicle id="v440" type="car" depart="1375.10"/>
<vehicle id="v441" type="car" depart="1388.34"/>
<vehicle id="v442" type="car" depart="1391.05"/>
<vehicle id="v443" type="car" depart="1400.04"/>
<vehicle id="v444" type="car" depart="1406.70"/>
<vehicle id="v445" type="car" depart="1409.55"/>
<vehicle id="v446" type="car" depart="1413.36"/>
<vehicle id="v447" type="car" depart="1415.47"/>
<vehicle id="v448" type="car" depart="1420.79"/>
<vehicle id="v449" type="car" depart="1423.18"/>
<vehicle id="v450" type="car" depart="1430.00"/>
<vehicle id="v451" type="car" depart="1434.08"/>
<vehicle id="v452" type="car" depart="1436.02"/>
<vehicle id="v453" type="car" depart="1436.92"/>
<vehicle id="v454" type="car" depart="1437.77"/>
<vehicle id="v455" type="car" depart="1440.81"/>
<vehicle id="v456" type="car" depart="1445.17"/>
<vehicle id="v457" type="car" depart="1447.38"/>
<vehicle id="v458" type="car" depart="1450.33"/>
<vehicle id="v459" type="car" depart="1451.30"/>
<vehicle id="v460" type="car" depart="1451.54"/>
<vehicle id="v461" type="car" depart="1452.55"/>
<vehicle id="v462" type="car" depart="1453.50"/>
<vehicle id="v463" type="car" depart="1454.66"/>
<vehicle id="v464" type="car" depart="1456.99"/>
<vehicle id="v465" type="car" depart="1457.43"/>
<vehicle id="v466" type="car" depart="1458.22"/>
<vehicle id="v467" type="car" depart="1461.77"/>
<vehicle id="v468" type="car" depart="1465.45"/>
<vehicle id="v469" type="car" depart="1465.65"/>
<vehicle id="v470" type="car" depart="1467.22"/>
<vehicle id="v471" type="car" depart="1469.57"/>
<vehicle id="v472" type="car" depart="1471.18"/>
<vehicle id="v473" type="car" depart="1471.87"/>
<vehicle id="v474" type="car" depart="1473.51"/>
<vehicle id="v475" type="car" depart="1480.57"/>
<vehicle id="v476" type="car" depart="1483.20"/>
<vehicle id="v477" type="car" depart="1486.77"/>
<vehicle id="v478" type="car" depart="1492.59"/>
<vehicle id="v479" type="car" depart="1496.95"/>
<vehicle id="v480" type="car" depart="1498.38"/>
<vehicle id="v481" type="car" depart="1498.40"/>
<vehicle id="v482" type="car" depart="1499.70"/>
<vehicle id="v483" type="car" depart="1503.90"/>
<vehicle id="v484" type="car" depart="1509.66"/>
<vehicle id="v485" type="car" depart="1518.86"/>
<vehicle id="v486" type="car" depart="1520.49"/>
<vehicle id="v487" type="car" depart="1524.62"/>
<vehicle id="v488" type="car" depart="1526.99"/>
<vehicle id="v489" type="car" depart="1529.77"/>
<vehicle id="v490" type="car" depart="1530.51"/>
<vehicle id="v491" type="car" depart="1531.26"/>
<vehicle id="v492" type="car" depart="1532.97"/>
<vehicle id="v493" type="car" depart="1533.06"/>
<vehicle id="v494" type="car" depart="1534.29"/>
<vehicle id="v495" type="car" depart="1537.70"/>
<vehicle id="v496" type="car" depart="1539.25"/>
<vehicle id="v497" type="car" depart="1539.80"/>
<vehicle id="v498" type="car" depart="1541.69"/>
<vehicle id="v499" type="car" depart="1542.10"/>
<vehicle id="v500" type="car" depart="1545.02"/>
<vehicle id="v501" type="car" depart="1545.10"/>
<vehicle id="v502" type="car" depart="1546.60"/>
<vehicle id="v503" type="car" depart="1549.09"/>
<vehicle id="v504" type="car" depart="1549.18"/>
<vehicle id="v505" type="car" depart="1552.26"/>
<vehicle id="v506" type="car" depart="1552.70"/>
<vehicle id="v507" type="car" depart="1554.56"/>
<vehicle id="v508" type="car" depart="1554.71"/>
<vehicle id="v509" type="car" depart="1556.14"/>
<vehicle id="v510" type="car" depart="1556.86"/>
<vehicle id="v511" type="car" depart="1558.04"/>
<vehicle id="v512" type="car" depart="1562.34"/>
<vehicle id="v513" type="car" depart="1563.77"/>
<vehicle id="v514" type="car" depart="1567.95"/>
<vehicle id="v515" type="car" depart="1573.30"/>
<vehicle id="v516" type="car" depart="1574.18"/>
<vehicle id="v517" type="car" depart="1574.43"/>
<vehicle id="v518" type="car" depart="1574.49"/>
<vehicle id="v519" type="car" depart="1576.82"/>
<vehicle id="v520" type="car" depart="1604.69"/>
<vehicle id="v521" type="car" depart="1605.99"/>
<vehicle id="v522" type="car" depart="1609.14"/>
<vehicle id="v523" type="car" depart="1613.70"/>
<vehicle id="v524" type="car" depart="1616.86"/>
<vehicle id="v525" type="car" depart="1621.07"/>
<vehicle id="v526" type="car" depart="1630.03"/>
<vehicle id="v527" type="car" depart="1630.70"/>
<vehicle id="v528" type="car" depart="1630.76"/>
<vehicle id="v529" type="car" depart="1631.26"/>
<vehicle id="v530" type="car" depart="1631.66"/>
<vehicle id="v531" type="car" depart="1634.98"/>
<vehicle id="v532" type="car" depart="1637.47"/>
<vehicle id="v533" type="car" depart="1638.21"/>
<vehicle id="v534" type="car" depart="1641.82"/>
<vehicle id="v535" type="car" depart="1646.19"/>
<vehicle id="v536" type="car" depart="1646.74"/>
<vehicle id="v537" type="car" depart="1649.54"/>
<vehicle id="v538" type="car" depart="1653.68"/>
<vehicle id="v539" type="car" depart="1654.04"/>
<vehicle id="v540" type="car" depart="1659.17"/>
<vehicle id="v541" type="car" depart="1669.21"/>
<vehicle id="v542" type="car" depart="1669.55"/>
<vehicle id="v543" type="car" depart="1669.63"/>
<vehicle id="v544" type="car" depart="1670.75"/>
<vehicle id="v545" type="car" depart="1674.14"/>
<vehicle id="v546" type="car" depart="1683.67"/>
<vehicle id="v547" type="car" depart="1685.18"/>
<vehicle id="v548" type="car" depart="1688.95"/>
<vehicle id="v549" type="car" depart="1689.19"/>
<vehicle id="v550" type="car" depart="1692.71"/>
<vehicle id="v551" type="car" depart="1695.67"/>
<vehicle id="v552" type="car" depart="1695.99"/>
<vehicle id="v553" type="car" depart="1700.43"/>
<vehicle id="v554" type="car" depart="1706.13"/>
<vehicle id="v555" type="car" depart="1708.88"/>
<vehicle id="v556" type="car" depart="1709.27"/>
<vehicle id="v557" type="car" depart="1721.64"/>
<vehicle id="v558" type="car" depart="1726.22"/>
<vehicle id="v559" type="car" depart="1727.50"/>
<vehicle id="v560" type="car" depart="1729.18"/>
<vehicle id="v561" type="car" depart="1730.57"/>
<vehicle id="v562" type="car" depart="1732.68"/>
<vehicle id="v563" type="car" depart="1733.93"/>
<vehicle id="v564" type="car" depart="1739.62"/>
<vehicle id="v565" type="car" depart="1744.80"/>
<vehicle id="v566" type="car" depart="1745.14"/>
<vehicle id="v567" type="car" depart="1754.85"/>
<vehicle id="v568" type="car" depart="1757.88"/>
<vehicle id="v569" type="car" depart="1763.17"/>
<vehicle id="v570" type="car" depart="1766.86"/>
<vehicle id="v571" type="car" depart="1768.57"/>
<vehicle id="v572" type="car" depart="1772.55"/>
<vehicle id="v573" type="car" depart="1782.64"/>
<vehicle id="v574" type="car" depart="1783.59"/>
<vehicle id="v575" type="car" depart="1788.54"/>
<vehicle id="v576" type="car" depart="1790.86"/>
<vehicle id="v577" type="car" depart="1792.84"/>
<vehicle id="v578" type="car" depart="1794.56"/>
<vehicle id="v579" type="car" depart="1798.50"/>
<vehicle id="v580" type="car" depart="1799.43"/>
<vehicle id="v581" type="car" depart="1805.16"/>
<vehicle id="v582" type="car" depart="1810.49"/>
<vehicle id="v583" type="car" depart="1810.76"/>
<vehicle id="v584" type="car" depart="1817.16"/>
<vehicle id="v585" type="car" depart="1818.00"/>
<vehicle id="v586" type="car" depart="1819.88"/>
<vehicle id="v587" type="car" depart="1822.70"/>
<vehicle id="v588" type="car" depart="1824.13"/>
<vehicle id="v589" type="car" depart="1824.22"/>
<vehicle id="v590" type="car" depart="1829.93"/>
<vehicle id="v591" type="car" depart="1830.53"/>
<vehicle id="v592" type="car" depart="1831.25"/>
<vehicle id="v593" type="car" depart="1836.04"/>
<vehicle id="v594" type="car" depart="1837.29"/>
<vehicle id="v595" type="car" depart="1843.66"/>
<vehicle id="v596" type="car" depart="1847.28"/>
<vehicle id="v597" type="car" depart="1848.25"/>
<vehicle id="v598" type="car" depart="1848.29"/>
<vehicle id="v599" type="car" depart="1857.16"/>
<vehicle id="v600" type="car" depart="1857.43"/>
<vehicle id="v601" type="car" depart="1861.25"/>
<vehicle id="v602" type="car" depart="1863.26"/>
<vehicle id="v603" type="car" depart="1867.52"/>
<vehicle id="v604" type="car" depart="1871.04"/>
<vehicle id="v605" type="car" depart="1874.15"/>
<vehicle id="v606" type="car" depart="1876.18"/>
<vehicle id="v607" type="car" depart="1880.90"/>
<vehicle id="v608" type="car" depart="1881.19"/>
<vehicle id="v609" type="car" depart="1881.94"/>
<vehicle id="v610" type="car" depart="1885.48"/>
<vehicle id="v611" type="car" depart="1886.57"/>
<vehicle id="v612" type="car" depart="1889.19"/>
<vehicle id="v613" type="car" depart="1891.11"/>
<vehicle id="v614" type="car" depart="1893.38"/>
<vehicle id="v615" type="car" depart="1895.04"/>
<vehicle id="v616" type="car" depart="1899.15"/>
<vehicle id="v617" type="car" depart="1900.36"/>
<vehicle id="v618" type="car" depart="1904.00"/>
<vehicle id="v619" type="car" depart="1904.95"/>